<?xml version="1.0" encoding="UTF-8"?>

<!-- generated on 2023-06-30 15:23:41 by Eclipse SUMO duarouter Version 1.16.0
<configuration xmlns:xsi="http://www.w3.org/2001/XMLSchema-instance" xsi:noNamespaceSchemaLocation="http://sumo.dlr.de/xsd/duarouterConfiguration.xsd">

    <input>
        <net-file value="./network_files/net.net.xml"/>
        <route-files value="./network_files/nd/trips/nd100output.trips.xml"/>
    </input>

    <output>
        <output-file value="./network_files/net.rou.xml"/>
    </output>

    <report>
        <ignore-errors value="true"/>
    </report>

</configuration>
-->

<routes xmlns:xsi="http://www.w3.org/2001/XMLSchema-instance" xsi:noNamespaceSchemaLocation="http://sumo.dlr.de/xsd/routes_file.xsd">
    <vehicle id="0" depart="0.00">
        <route edges="IJ JF FL LA AE"/>
    </vehicle>
    <vehicle id="1" depart="1.00">
        <route edges="EF FE EA"/>
    </vehicle>
    <vehicle id="2" depart="2.00">
        <route edges="JI IM"/>
    </vehicle>
    <vehicle id="3" depart="3.00">
        <route edges="LA AE EF FG GH HB BK"/>
    </vehicle>
    <vehicle id="4" depart="4.00">
        <route edges="GF FE EA AL"/>
    </vehicle>
    <vehicle id="5" depart="5.00">
        <route edges="EA AL LH HB"/>
    </vehicle>
    <vehicle id="6" depart="6.00">
        <route edges="AL LF FE ED DI"/>
    </vehicle>
    <vehicle id="7" depart="7.00">
        <route edges="IJ JF FG GH HG"/>
    </vehicle>
    <vehicle id="8" depart="8.00">
        <route edges="EA AL LF FJ JI ID"/>
    </vehicle>
    <vehicle id="9" depart="9.00">
        <route edges="KC CM MJ JF FL LA AE"/>
    </vehicle>
    <vehicle id="10" depart="10.00">
        <route edges="KC CM MJ JF"/>
    </vehicle>
    <vehicle id="11" depart="11.00">
        <route edges="FE EF FG GK KC CM"/>
    </vehicle>
    <vehicle id="12" depart="12.00">
        <route edges="MC CK KG GF FE"/>
    </vehicle>
    <vehicle id="13" depart="13.00">
        <route edges="BK"/>
    </vehicle>
    <vehicle id="14" depart="14.00">
        <route edges="KJ JI ID"/>
    </vehicle>
    <vehicle id="15" depart="15.00">
        <route edges="KC CM MJ JI"/>
    </vehicle>
    <vehicle id="16" depart="16.00">
        <route edges="HG GF FJ JM MC"/>
    </vehicle>
    <vehicle id="17" depart="17.00">
        <route edges="FJ JF FG GH HG"/>
    </vehicle>
    <vehicle id="18" depart="18.00">
        <route edges="KG GK KC CM MI IE"/>
    </vehicle>
    <vehicle id="19" depart="19.00">
        <route edges="KJ JK KB BH HL"/>
    </vehicle>
    <vehicle id="20" depart="20.00">
        <route edges="JF FE EA AL"/>
    </vehicle>
    <vehicle id="21" depart="21.00">
        <route edges="EA AL LF FE EF"/>
    </vehicle>
    <vehicle id="22" depart="22.00">
        <route edges="BK KJ JI IE EA"/>
    </vehicle>
    <vehicle id="23" depart="23.00">
        <route edges="BK KJ JI IE EF"/>
    </vehicle>
    <vehicle id="24" depart="24.00">
        <route edges="IJ JF FG"/>
    </vehicle>
    <vehicle id="25" depart="25.00">
        <route edges="FJ JI IE ED DI"/>
    </vehicle>
    <vehicle id="26" depart="26.00">
        <route edges="EF FL LH"/>
    </vehicle>
    <vehicle id="27" depart="27.00">
        <route edges="IJ JI IE"/>
    </vehicle>
    <vehicle id="28" depart="28.00">
        <route edges="DE EF FJ JI"/>
    </vehicle>
    <vehicle id="29" depart="29.00">
        <route edges="DE EF FJ"/>
    </vehicle>
    <vehicle id="30" depart="30.00">
        <route edges="MI IJ"/>
    </vehicle>
    <vehicle id="31" depart="31.00">
        <route edges="HL LF FJ JF"/>
    </vehicle>
    <vehicle id="32" depart="32.00">
        <route edges="KJ JK KB"/>
    </vehicle>
    <vehicle id="33" depart="33.00">
        <route edges="EA AL"/>
    </vehicle>
    <vehicle id="34" depart="34.00">
        <route edges="EI IE EF"/>
    </vehicle>
    <vehicle id="35" depart="35.00">
        <route edges="EA AL LH"/>
    </vehicle>
    <vehicle id="36" depart="36.00">
        <route edges="LA AE EI"/>
    </vehicle>
    <vehicle id="37" depart="37.00">
        <route edges="IJ JF FL"/>
    </vehicle>
    <vehicle id="38" depart="38.00">
        <route edges="LF FG GH"/>
    </vehicle>
    <vehicle id="39" depart="39.00">
        <route edges="EF FE ED"/>
    </vehicle>
    <vehicle id="40" depart="40.00">
        <route edges="HL LA AE ED"/>
    </vehicle>
    <vehicle id="41" depart="41.00">
        <route edges="ID DE EA AL LF"/>
    </vehicle>
    <vehicle id="42" depart="42.00">
        <route edges="FL LF FE EA"/>
    </vehicle>
    <vehicle id="43" depart="43.00">
        <route edges="MI IE EA AL LH HB"/>
    </vehicle>
    <vehicle id="44" depart="44.00">
        <route edges="BK KJ JI IE EA AL"/>
    </vehicle>
    <vehicle id="45" depart="45.00">
        <route edges="CK KC CM MI IE"/>
    </vehicle>
    <vehicle id="46" depart="46.00">
        <route edges="KC CM MJ JF FG GF"/>
    </vehicle>
    <vehicle id="47" depart="47.00">
        <route edges="BH HG GF FJ"/>
    </vehicle>
    <vehicle id="48" depart="48.00">
        <route edges="MI IE EF FG GH HG"/>
    </vehicle>
    <vehicle id="49" depart="49.00">
        <route edges="MC CK KJ"/>
    </vehicle>
    <vehicle id="50" depart="50.00">
        <route edges="AE EI IJ JI"/>
    </vehicle>
    <vehicle id="51" depart="51.00">
        <route edges="IM MC CK KG GH HG"/>
    </vehicle>
    <vehicle id="52" depart="52.00">
        <route edges="EF FJ JI IJ"/>
    </vehicle>
    <vehicle id="53" depart="53.00">
        <route edges="CK KG GF"/>
    </vehicle>
    <vehicle id="54" depart="54.00">
        <route edges="GH HG GF FJ JM MC"/>
    </vehicle>
    <vehicle id="55" depart="55.00">
        <route edges="LA AE EF"/>
    </vehicle>
    <vehicle id="56" depart="56.00">
        <route edges="HB BK KJ JI ID DE"/>
    </vehicle>
    <vehicle id="57" depart="57.00">
        <route edges="LF FL LA"/>
    </vehicle>
    <vehicle id="58" depart="58.00">
        <route edges="EI IJ"/>
    </vehicle>
    <vehicle id="59" depart="59.00">
        <route edges="IE EF FG GK KC CM"/>
    </vehicle>
    <vehicle id="60" depart="60.00">
        <route edges="JK KB BH HG"/>
    </vehicle>
    <vehicle id="61" depart="61.00">
        <route edges="KB BH HG"/>
    </vehicle>
    <vehicle id="62" depart="62.00">
        <route edges="AE EF FE"/>
    </vehicle>
    <vehicle id="63" depart="63.00">
        <route edges="AE EA AL LH"/>
    </vehicle>
    <vehicle id="64" depart="64.00">
        <route edges="LA AE EI IM MC CK KG"/>
    </vehicle>
    <vehicle id="65" depart="65.00">
        <route edges="EI IJ JK KB BH"/>
    </vehicle>
    <vehicle id="66" depart="66.00">
        <route edges="LA AE EA AL LH"/>
    </vehicle>
    <vehicle id="67" depart="67.00">
        <route edges="BK KG GK"/>
    </vehicle>
    <vehicle id="68" depart="68.00">
        <route edges="BH HB BK KJ JK"/>
    </vehicle>
    <vehicle id="69" depart="69.00">
        <route edges="KB BH HL LA AE EI IM MC CK"/>
    </vehicle>
    <vehicle id="70" depart="70.00">
        <route edges="GK KG GH HG"/>
    </vehicle>
    <vehicle id="71" depart="71.00">
        <route edges="EF FL LA"/>
    </vehicle>
    <vehicle id="72" depart="72.00">
        <route edges="GF FE EA"/>
    </vehicle>
    <vehicle id="73" depart="73.00">
        <route edges="HG GF FJ JI"/>
    </vehicle>
    <vehicle id="74" depart="74.00">
        <route edges="DI IE EI"/>
    </vehicle>
    <vehicle id="75" depart="75.00">
        <route edges="MI IJ"/>
    </vehicle>
    <vehicle id="76" depart="76.00">
        <route edges="GF FG GH HB"/>
    </vehicle>
    <vehicle id="77" depart="77.00">
        <route edges="CK KG GF FE EA"/>
    </vehicle>
    <vehicle id="78" depart="78.00">
        <route edges="FE EI ID"/>
    </vehicle>
    <vehicle id="79" depart="79.00">
        <route edges="EA"/>
    </vehicle>
    <vehicle id="80" depart="80.00">
        <route edges="BH HL LA AE EI IE"/>
    </vehicle>
    <vehicle id="81" depart="81.00">
        <route edges="EA AL LF"/>
    </vehicle>
    <vehicle id="82" depart="82.00">
        <route edges="KJ JK KB BH"/>
    </vehicle>
    <vehicle id="83" depart="83.00">
        <route edges="ED DI IM"/>
    </vehicle>
    <vehicle id="84" depart="84.00">
        <route edges="EA AL LG GK KC CM"/>
    </vehicle>
    <vehicle id="85" depart="85.00">
        <route edges="LH HL"/>
    </vehicle>
    <vehicle id="86" depart="86.00">
        <route edges="GH HB BK KB"/>
    </vehicle>
    <vehicle id="87" depart="87.00">
        <route edges="KC CM MI IE ED DI"/>
    </vehicle>
    <vehicle id="88" depart="88.00">
        <route edges="BK KG GF"/>
    </vehicle>
    <vehicle id="89" depart="89.00">
        <route edges="GF FG GH"/>
    </vehicle>
    <vehicle id="90" depart="90.00">
        <route edges="JI IM"/>
    </vehicle>
    <vehicle id="91" depart="91.00">
        <route edges="MI IE EA AL LH HB BK"/>
    </vehicle>
    <vehicle id="92" depart="92.00">
        <route edges="FL LF FE"/>
    </vehicle>
    <vehicle id="93" depart="93.00">
        <route edges="KJ JF FE ED"/>
    </vehicle>
    <vehicle id="94" depart="94.00">
        <route edges="DI IE EF FG GH"/>
    </vehicle>
    <vehicle id="95" depart="95.00">
        <route edges="GF FE EF"/>
    </vehicle>
    <vehicle id="96" depart="96.00">
        <route edges="ED DI IE EA AL LH"/>
    </vehicle>
    <vehicle id="97" depart="97.00">
        <route edges="GF FG GK KJ"/>
    </vehicle>
    <vehicle id="98" depart="98.00">
        <route edges="HG GF FE EA AL"/>
    </vehicle>
    <vehicle id="99" depart="99.00">
        <route edges="MI IJ JK KG"/>
    </vehicle>
</routes>
