<?xml version="1.0" encoding="UTF-8"?>

<!-- generated on 2023-07-07 17:07:19 by Eclipse SUMO duarouter Version 1.17.0
<configuration xmlns:xsi="http://www.w3.org/2001/XMLSchema-instance" xsi:noNamespaceSchemaLocation="http://sumo.dlr.de/xsd/duarouterConfiguration.xsd">

    <input>
        <net-file value="./network_files/net.net.xml"/>
        <route-files value="./network_files/nd/trips/nd50output.trips.xml"/>
    </input>

    <output>
        <output-file value="./network_files/net.rou.xml"/>
    </output>

    <report>
        <ignore-errors value="true"/>
    </report>

</configuration>
-->

<routes xmlns:xsi="http://www.w3.org/2001/XMLSchema-instance" xsi:noNamespaceSchemaLocation="http://sumo.dlr.de/xsd/routes_file.xsd">
    <vehicle id="0" depart="0.00">
        <route edges="IJ JI IE EA AL"/>
    </vehicle>
    <vehicle id="1" depart="0.00">
        <route edges="ED DI"/>
    </vehicle>
    <vehicle id="2" depart="0.00">
        <route edges="JK KJ JF"/>
    </vehicle>
    <vehicle id="3" depart="0.00">
        <route edges="LF FJ JK KB BH"/>
    </vehicle>
    <vehicle id="4" depart="0.00">
        <route edges="FL LA AL"/>
    </vehicle>
    <vehicle id="5" depart="0.00">
        <route edges="DI IM MC CB BH HB"/>
    </vehicle>
    <vehicle id="6" depart="0.00">
        <route edges="AL LF FE ED DE"/>
    </vehicle>
    <vehicle id="7" depart="0.00">
        <route edges="IM MC CB BH HG"/>
    </vehicle>
    <vehicle id="8" depart="0.00">
        <route edges="DI ID"/>
    </vehicle>
    <vehicle id="9" depart="0.00">
        <route edges="KC CM MI IE EA AE"/>
    </vehicle>
    <vehicle id="10" depart="0.00">
        <route edges="KC CK KJ JI"/>
    </vehicle>
    <vehicle id="11" depart="0.00">
        <route edges="FE EF FG GK KC CK"/>
    </vehicle>
    <vehicle id="12" depart="0.00">
        <route edges="MI IE EF FE"/>
    </vehicle>
    <vehicle id="13" depart="0.00">
        <route edges="BH HB BK"/>
    </vehicle>
    <vehicle id="14" depart="0.00">
        <route edges="KJ JI IE"/>
    </vehicle>
    <vehicle id="15" depart="0.00">
        <route edges="KC CM MI IJ JK"/>
    </vehicle>
    <vehicle id="16" depart="0.00">
        <route edges="HG GK KC CM MI"/>
    </vehicle>
    <vehicle id="17" depart="0.00">
        <route edges="FG GH HL"/>
    </vehicle>
    <vehicle id="18" depart="0.00">
        <route edges="KG GK KJ JI IE"/>
    </vehicle>
    <vehicle id="19" depart="0.00">
        <route edges="LA AE EI ID"/>
    </vehicle>
    <vehicle id="20" depart="0.00">
        <route edges="JI IE EA AL"/>
    </vehicle>
    <vehicle id="21" depart="0.00">
        <route edges="DI IE EF"/>
    </vehicle>
    <vehicle id="22" depart="0.00">
        <route edges="BH HL LA AD DI"/>
    </vehicle>
    <vehicle id="23" depart="0.00">
        <route edges="BK KG GF FE ED"/>
    </vehicle>
    <vehicle id="24" depart="0.00">
        <route edges="IJ JF FG"/>
    </vehicle>
    <vehicle id="25" depart="0.00">
        <route edges="FG GF FE ED DE"/>
    </vehicle>
    <vehicle id="26" depart="0.00">
        <route edges="ED DI IM MC"/>
    </vehicle>
    <vehicle id="27" depart="0.00">
        <route edges="IM MC CM MI IE"/>
    </vehicle>
    <vehicle id="28" depart="0.00">
        <route edges="CM MI IJ JK"/>
    </vehicle>
    <vehicle id="29" depart="0.00">
        <route edges="CK KG GF FG"/>
    </vehicle>
    <vehicle id="30" depart="0.00">
        <route edges="IJ"/>
    </vehicle>
    <vehicle id="31" depart="0.00">
        <route edges="HL LF FJ JF"/>
    </vehicle>
    <vehicle id="32" depart="0.00">
        <route edges="KJ JK KB"/>
    </vehicle>
    <vehicle id="33" depart="0.00">
        <route edges="DI ID DA AL"/>
    </vehicle>
    <vehicle id="34" depart="0.00">
        <route edges="EI IE ED"/>
    </vehicle>
    <vehicle id="35" depart="0.00">
        <route edges="DE EI IM MC"/>
    </vehicle>
    <vehicle id="36" depart="0.00">
        <route edges="LA AE EI"/>
    </vehicle>
    <vehicle id="37" depart="0.00">
        <route edges="IM MC CK KG GF FJ"/>
    </vehicle>
    <vehicle id="38" depart="0.00">
        <route edges="LH HG GH"/>
    </vehicle>
    <vehicle id="39" depart="0.00">
        <route edges="ED DE EA"/>
    </vehicle>
    <vehicle id="40" depart="0.00">
        <route edges="HL LA AE ED"/>
    </vehicle>
    <vehicle id="41" depart="0.00">
        <route edges="ID DA AL LF"/>
    </vehicle>
    <vehicle id="42" depart="0.00">
        <route edges="FJ JI ID DI"/>
    </vehicle>
    <vehicle id="43" depart="0.00">
        <route edges="HB"/>
    </vehicle>
    <vehicle id="44" depart="0.00">
        <route edges="BH HL LA AL"/>
    </vehicle>
    <vehicle id="45" depart="0.00">
        <route edges="BK KJ JI IJ"/>
    </vehicle>
    <vehicle id="46" depart="0.00">
        <route edges="KC CK KG GF FL"/>
    </vehicle>
    <vehicle id="47" depart="0.00">
        <route edges="BC CK KG GF FJ"/>
    </vehicle>
    <vehicle id="48" depart="0.00">
        <route edges="HG"/>
    </vehicle>
    <vehicle id="49" depart="0.00">
        <route edges="MI IE EF FL LA"/>
    </vehicle>
</routes>
