<?xml version="1.0" encoding="UTF-8"?>

<!-- generated on 2023-06-13 11:33:47.663719 by randomTrips.py v1_16_0+0000-94ec4c6cd72
<configuration>
    <end value="50"/>
    <net-file value="./network_files/net.net.xml"/>
    <output-trip-file value="./network_files/ow/trips/ow50output.trips.xml"/>
</configuration>
-->

<routes xmlns:xsi="http://www.w3.org/2001/XMLSchema-instance" xsi:noNamespaceSchemaLocation="http://sumo.dlr.de/xsd/routes_file.xsd">
    <trip id="0" depart="0.00" from="HG" to="AC"/>
    <trip id="1" depart="0.00" from="DE" to="DA"/>
    <trip id="2" depart="0.00" from="JG" to="IF"/>
    <trip id="3" depart="0.00" from="KJ" to="BD"/>
    <trip id="4" depart="0.00" from="FG" to="AC"/>
    <trip id="5" depart="0.00" from="DA" to="GF"/>
    <trip id="6" depart="0.00" from="AC" to="CG"/>
    <trip id="7" depart="0.00" from="HK" to="GJ"/>
    <trip id="8" depart="0.00" from="DA" to="HD"/>
    <trip id="9" depart="0.00" from="JL" to="AB"/>
    <trip id="10" depart="0.00" from="JL" to="IJ"/>
    <trip id="11" depart="0.00" from="EB" to="CD"/>
    <trip id="12" depart="0.00" from="LJ" to="EB"/>
    <trip id="13" depart="0.00" from="BD" to="BD"/>
    <trip id="14" depart="0.00" from="KG" to="HD"/>
    <trip id="15" depart="0.00" from="JL" to="JG"/>
    <trip id="16" depart="0.00" from="GH" to="MJ"/>
    <trip id="17" depart="0.00" from="EH" to="GJ"/>
    <trip id="18" depart="0.00" from="JM" to="HE"/>
    <trip id="19" depart="0.00" from="KH" to="GK"/>
    <trip id="20" depart="0.00" from="IJ" to="AD"/>
    <trip id="21" depart="0.00" from="DA" to="DE"/>
    <trip id="22" depart="0.00" from="BA" to="DB"/>
    <trip id="23" depart="0.00" from="BD" to="DE"/>
    <trip id="24" depart="0.00" from="HG" to="ED"/>
    <trip id="25" depart="0.00" from="ED" to="DA"/>
    <trip id="26" depart="0.00" from="DC" to="LI"/>
    <trip id="27" depart="0.00" from="HK" to="HE"/>
    <trip id="28" depart="0.00" from="CF" to="IL"/>
    <trip id="29" depart="0.00" from="CD" to="EH"/>
    <trip id="30" depart="0.00" from="MK" to="HG"/>
    <trip id="31" depart="0.00" from="GJ" to="IF"/>
    <trip id="32" depart="0.00" from="KG" to="JK"/>
    <trip id="33" depart="0.00" from="DA" to="AC"/>
    <trip id="34" depart="0.00" from="DH" to="DC"/>
    <trip id="35" depart="0.00" from="DA" to="LJ"/>
    <trip id="36" depart="0.00" from="KJ" to="DH"/>
    <trip id="37" depart="0.00" from="HK" to="EH"/>
    <trip id="38" depart="0.00" from="KM" to="GC"/>
    <trip id="39" depart="0.00" from="DC" to="DB"/>
    <trip id="40" depart="0.00" from="GJ" to="DC"/>
    <trip id="41" depart="0.00" from="HD" to="KM"/>
    <trip id="42" depart="0.00" from="FC" to="DA"/>
    <trip id="43" depart="0.00" from="MK" to="GF"/>
    <trip id="44" depart="0.00" from="BD" to="AD"/>
    <trip id="45" depart="0.00" from="BE" to="HG"/>
    <trip id="46" depart="0.00" from="JL" to="FG"/>
    <trip id="47" depart="0.00" from="BA" to="EH"/>
    <trip id="48" depart="0.00" from="MK" to="GH"/>
    <trip id="49" depart="0.00" from="MJ" to="KH"/>
</routes>
