<?xml version="1.0" encoding="UTF-8"?>

<!-- generated on 2023-06-30 19:42:01 by Eclipse SUMO duarouter Version 1.16.0
<configuration xmlns:xsi="http://www.w3.org/2001/XMLSchema-instance" xsi:noNamespaceSchemaLocation="http://sumo.dlr.de/xsd/duarouterConfiguration.xsd">

    <input>
        <net-file value="65-PIN3/src/solver/rs/network_files/net.net.xml"/>
        <route-files value="65-PIN3/src/solver/rs/network_files/ow/trips/ow250output.trips.xml"/>
    </input>

    <output>
        <output-file value="65-PIN3/src/solver/rs/network_files/net.rou.xml"/>
    </output>

    <report>
        <ignore-errors value="true"/>
    </report>

</configuration>
-->

<routes xmlns:xsi="http://www.w3.org/2001/XMLSchema-instance" xsi:noNamespaceSchemaLocation="http://sumo.dlr.de/xsd/routes_file.xsd">
    <vehicle id="0" depart="0.00">
        <route edges="HG GF FC CA AC"/>
    </vehicle>
    <vehicle id="1" depart="1.00">
        <route edges="DE ED DA"/>
    </vehicle>
    <vehicle id="2" depart="2.00">
        <route edges="JG GJ JL LI IF"/>
    </vehicle>
    <vehicle id="3" depart="3.00">
        <route edges="KJ JM MK KH HE EB BD"/>
    </vehicle>
    <vehicle id="4" depart="4.00">
        <route edges="FG GC CA AC"/>
    </vehicle>
    <vehicle id="5" depart="5.00">
        <route edges="DA AC CG GF"/>
    </vehicle>
    <vehicle id="6" depart="6.00">
        <route edges="AC CG"/>
    </vehicle>
    <vehicle id="7" depart="7.00">
        <route edges="HK KH HG GJ"/>
    </vehicle>
    <vehicle id="8" depart="8.00">
        <route edges="DA AD DH HD"/>
    </vehicle>
    <vehicle id="9" depart="9.00">
        <route edges="JL LI IF FC CA AB"/>
    </vehicle>
    <vehicle id="10" depart="10.00">
        <route edges="JL LI IJ"/>
    </vehicle>
    <vehicle id="11" depart="11.00">
        <route edges="EB BA AC CD"/>
    </vehicle>
    <vehicle id="12" depart="12.00">
        <route edges="LJ JM MK KH HE EB"/>
    </vehicle>
    <vehicle id="13" depart="13.00">
        <route edges="BD"/>
    </vehicle>
    <vehicle id="14" depart="14.00">
        <route edges="KG GH HD"/>
    </vehicle>
    <vehicle id="15" depart="15.00">
        <route edges="JL LI IJ JG"/>
    </vehicle>
    <vehicle id="16" depart="16.00">
        <route edges="GH HK KM MJ"/>
    </vehicle>
    <vehicle id="17" depart="17.00">
        <route edges="EH HG GJ"/>
    </vehicle>
    <vehicle id="18" depart="18.00">
        <route edges="JM MK KH HE"/>
    </vehicle>
    <vehicle id="19" depart="19.00">
        <route edges="KH HG GK"/>
    </vehicle>
    <vehicle id="20" depart="20.00">
        <route edges="IJ JG GD DA AD"/>
    </vehicle>
    <vehicle id="21" depart="21.00">
        <route edges="DA AC CD DE"/>
    </vehicle>
    <vehicle id="22" depart="22.00">
        <route edges="BA AC CD DB"/>
    </vehicle>
    <vehicle id="23" depart="23.00">
        <route edges="BD DE"/>
    </vehicle>
    <vehicle id="24" depart="24.00">
        <route edges="HG GK KH HE ED"/>
    </vehicle>
    <vehicle id="25" depart="25.00">
        <route edges="ED DA"/>
    </vehicle>
    <vehicle id="26" depart="26.00">
        <route edges="DC CG GJ JL LI"/>
    </vehicle>
    <vehicle id="27" depart="27.00">
        <route edges="HK KH HE"/>
    </vehicle>
    <vehicle id="28" depart="28.00">
        <route edges="CF FI IL"/>
    </vehicle>
    <vehicle id="29" depart="29.00">
        <route edges="CD DE EH"/>
    </vehicle>
    <vehicle id="30" depart="30.00">
        <route edges="MK KH HG"/>
    </vehicle>
    <vehicle id="31" depart="31.00">
        <route edges="GJ JL LI IF"/>
    </vehicle>
    <vehicle id="32" depart="32.00">
        <route edges="KG GJ JK"/>
    </vehicle>
    <vehicle id="33" depart="33.00">
        <route edges="DA AC"/>
    </vehicle>
    <vehicle id="34" depart="34.00">
        <route edges="DH HD DC"/>
    </vehicle>
    <vehicle id="35" depart="35.00">
        <route edges="DA AC CF FI IL LJ"/>
    </vehicle>
    <vehicle id="36" depart="36.00">
        <route edges="KJ JM MK KH HD DH"/>
    </vehicle>
    <vehicle id="37" depart="37.00">
        <route edges="HK KH HE EH"/>
    </vehicle>
    <vehicle id="38" depart="38.00">
        <route edges="KM MJ JG GC"/>
    </vehicle>
    <vehicle id="39" depart="39.00">
        <route edges="DC CD DB"/>
    </vehicle>
    <vehicle id="40" depart="40.00">
        <route edges="GJ JG GD DC"/>
    </vehicle>
    <vehicle id="41" depart="41.00">
        <route edges="HD DH HK KM"/>
    </vehicle>
    <vehicle id="42" depart="42.00">
        <route edges="FC CD DA"/>
    </vehicle>
    <vehicle id="43" depart="43.00">
        <route edges="MK KH HG GF"/>
    </vehicle>
    <vehicle id="44" depart="44.00">
        <route edges="BD DA AD"/>
    </vehicle>
    <vehicle id="45" depart="45.00">
        <route edges="BE EH HG"/>
    </vehicle>
    <vehicle id="46" depart="46.00">
        <route edges="JL LI IF FG"/>
    </vehicle>
    <vehicle id="47" depart="47.00">
        <route edges="BA AB BE EH"/>
    </vehicle>
    <vehicle id="48" depart="48.00">
        <route edges="MK KG GH"/>
    </vehicle>
    <vehicle id="49" depart="49.00">
        <route edges="MJ JM MK KH"/>
    </vehicle>
    <vehicle id="50" depart="50.00">
        <route edges="AB BA AC CF FI IL"/>
    </vehicle>
    <vehicle id="51" depart="51.00">
        <route edges="IF FG GH"/>
    </vehicle>
    <vehicle id="52" depart="52.00">
        <route edges="DC CG GH HG"/>
    </vehicle>
    <vehicle id="53" depart="53.00">
        <route edges="BE EH HG GF FG"/>
    </vehicle>
    <vehicle id="54" depart="54.00">
        <route edges="FI IL LJ"/>
    </vehicle>
    <vehicle id="55" depart="55.00">
        <route edges="KJ JM MK KH HE ED DC"/>
    </vehicle>
    <vehicle id="56" depart="56.00">
        <route edges="GF FC CF"/>
    </vehicle>
    <vehicle id="57" depart="57.00">
        <route edges="KM MJ JM MK KH"/>
    </vehicle>
    <vehicle id="58" depart="58.00">
        <route edges="DG GH HG"/>
    </vehicle>
    <vehicle id="59" depart="59.00">
        <route edges="HE ED DC CD"/>
    </vehicle>
    <vehicle id="60" depart="60.00">
        <route edges="JI IJ JG GH"/>
    </vehicle>
    <vehicle id="61" depart="61.00">
        <route edges="JK KG GH"/>
    </vehicle>
    <vehicle id="62" depart="62.00">
        <route edges="AB BD DH"/>
    </vehicle>
    <vehicle id="63" depart="63.00">
        <route edges="AB BE EH HK KJ JL LI"/>
    </vehicle>
    <vehicle id="64" depart="64.00">
        <route edges="KJ JM"/>
    </vehicle>
    <vehicle id="65" depart="65.00">
        <route edges="DG GD DA AD"/>
    </vehicle>
    <vehicle id="66" depart="66.00">
        <route edges="KJ JI IL LJ"/>
    </vehicle>
    <vehicle id="67" depart="67.00">
        <route edges="BD DG GD"/>
    </vehicle>
    <vehicle id="68" depart="68.00">
        <route edges="BA AC CF FJ JI"/>
    </vehicle>
    <vehicle id="69" depart="69.00">
        <route edges="JI IF FC CA"/>
    </vehicle>
    <vehicle id="70" depart="70.00">
        <route edges="GC CG GJ"/>
    </vehicle>
    <vehicle id="71" depart="71.00">
        <route edges="DC CG GK KH"/>
    </vehicle>
    <vehicle id="72" depart="72.00">
        <route edges="FG GD DA"/>
    </vehicle>
    <vehicle id="73" depart="73.00">
        <route edges="GH HG GJ JG"/>
    </vehicle>
    <vehicle id="74" depart="74.00">
        <route edges="CG GD DG"/>
    </vehicle>
    <vehicle id="75" depart="75.00">
        <route edges="MK KH HK"/>
    </vehicle>
    <vehicle id="76" depart="76.00">
        <route edges="FI IJ JG GF"/>
    </vehicle>
    <vehicle id="77" depart="77.00">
        <route edges="BE ED DA"/>
    </vehicle>
    <vehicle id="78" depart="78.00">
        <route edges="EB BD DH HD"/>
    </vehicle>
    <vehicle id="79" depart="79.00">
        <route edges="DB BD DA"/>
    </vehicle>
    <vehicle id="80" depart="80.00">
        <route edges="BA AD DH HG"/>
    </vehicle>
    <vehicle id="81" depart="81.00">
        <route edges="DA AB BE EH HK KM"/>
    </vehicle>
    <vehicle id="82" depart="82.00">
        <route edges="KH HE EB BA"/>
    </vehicle>
    <vehicle id="83" depart="83.00">
        <route edges="DB BA AC CF FI IF"/>
    </vehicle>
    <vehicle id="84" depart="84.00">
        <route edges="DA AC CA"/>
    </vehicle>
    <vehicle id="85" depart="85.00">
        <route edges="LI IJ JG GK"/>
    </vehicle>
    <vehicle id="86" depart="86.00">
        <route edges="GC CF FJ JK"/>
    </vehicle>
    <vehicle id="87" depart="87.00">
        <route edges="JL LI IF FC CG"/>
    </vehicle>
    <vehicle id="88" depart="88.00">
        <route edges="BD DG GF FG"/>
    </vehicle>
    <vehicle id="89" depart="89.00">
        <route edges="FG GC"/>
    </vehicle>
    <vehicle id="90" depart="90.00">
        <route edges="IL LJ JI IF"/>
    </vehicle>
    <vehicle id="91" depart="91.00">
        <route edges="MK KH HE EB BD"/>
    </vehicle>
    <vehicle id="92" depart="92.00">
        <route edges="FC CD DE EB"/>
    </vehicle>
    <vehicle id="93" depart="93.00">
        <route edges="KH HD DB"/>
    </vehicle>
    <vehicle id="94" depart="94.00">
        <route edges="CG GF FI"/>
    </vehicle>
    <vehicle id="95" depart="95.00">
        <route edges="FG GD DE"/>
    </vehicle>
    <vehicle id="96" depart="96.00">
        <route edges="DB BD DG GJ JL LI"/>
    </vehicle>
    <vehicle id="97" depart="97.00">
        <route edges="FI IJ JK KH"/>
    </vehicle>
    <vehicle id="98" depart="98.00">
        <route edges="GJ JG GD DA AD"/>
    </vehicle>
    <vehicle id="99" depart="99.00">
        <route edges="MK KG"/>
    </vehicle>
    <vehicle id="100" depart="100.00">
        <route edges="MJ JL LI"/>
    </vehicle>
    <vehicle id="101" depart="101.00">
        <route edges="KG GC CD"/>
    </vehicle>
    <vehicle id="102" depart="102.00">
        <route edges="GD DA"/>
    </vehicle>
    <vehicle id="103" depart="103.00">
        <route edges="FC CA AD"/>
    </vehicle>
    <vehicle id="104" depart="104.00">
        <route edges="EH HK KM MJ JM MK"/>
    </vehicle>
    <vehicle id="105" depart="105.00">
        <route edges="DC CF FJ JK"/>
    </vehicle>
    <vehicle id="106" depart="106.00">
        <route edges="FI IJ JF FG"/>
    </vehicle>
    <vehicle id="107" depart="107.00">
        <route edges="LJ JM MK"/>
    </vehicle>
    <vehicle id="108" depart="108.00">
        <route edges="GJ JI IL"/>
    </vehicle>
    <vehicle id="109" depart="109.00">
        <route edges="CD DG"/>
    </vehicle>
    <vehicle id="110" depart="110.00">
        <route edges="MJ JG GK"/>
    </vehicle>
    <vehicle id="111" depart="111.00">
        <route edges="GJ JG"/>
    </vehicle>
    <vehicle id="112" depart="112.00">
        <route edges="AD DH HD"/>
    </vehicle>
    <vehicle id="113" depart="113.00">
        <route edges="GF FJ JM MK KG"/>
    </vehicle>
    <vehicle id="114" depart="114.00">
        <route edges="CD DE EH HK KM MJ"/>
    </vehicle>
    <vehicle id="115" depart="115.00">
        <route edges="BA AC CF"/>
    </vehicle>
    <vehicle id="116" depart="116.00">
        <route edges="HD DG GJ JL LI IF"/>
    </vehicle>
    <vehicle id="117" depart="117.00">
        <route edges="DB BE"/>
    </vehicle>
    <vehicle id="118" depart="118.00">
        <route edges="KJ JG GD DB"/>
    </vehicle>
    <vehicle id="119" depart="119.00">
        <route edges="HD DH HE"/>
    </vehicle>
    <vehicle id="120" depart="120.00">
        <route edges="FG GH HD"/>
    </vehicle>
    <vehicle id="121" depart="121.00">
        <route edges="GH HG GJ JL LI"/>
    </vehicle>
    <vehicle id="122" depart="122.00">
        <route edges="CG GJ JI IL"/>
    </vehicle>
    <vehicle id="123" depart="123.00">
        <route edges="DB BE EH"/>
    </vehicle>
    <vehicle id="124" depart="124.00">
        <route edges="IF FG GD DG"/>
    </vehicle>
    <vehicle id="125" depart="125.00">
        <route edges="DH HK KJ JI"/>
    </vehicle>
    <vehicle id="126" depart="126.00">
        <route edges="BA AC CF FI"/>
    </vehicle>
    <vehicle id="127" depart="127.00">
        <route edges="MK"/>
    </vehicle>
    <vehicle id="128" depart="128.00">
        <route edges="BA AD DA"/>
    </vehicle>
    <vehicle id="129" depart="129.00">
        <route edges="DC CG GJ JL LI"/>
    </vehicle>
    <vehicle id="130" depart="130.00">
        <route edges="KJ"/>
    </vehicle>
    <vehicle id="131" depart="131.00">
        <route edges="ED DC CD"/>
    </vehicle>
    <vehicle id="132" depart="132.00">
        <route edges="KG GF FI IJ"/>
    </vehicle>
    <vehicle id="133" depart="133.00">
        <route edges="HE ED DG GJ JM MK"/>
    </vehicle>
    <vehicle id="134" depart="134.00">
        <route edges="HK KH HD DA AB"/>
    </vehicle>
    <vehicle id="135" depart="135.00">
        <route edges="JM MK KH HD DG"/>
    </vehicle>
    <vehicle id="136" depart="136.00">
        <route edges="HK KJ JI IL LJ"/>
    </vehicle>
    <vehicle id="137" depart="137.00">
        <route edges="CA AB BE"/>
    </vehicle>
    <vehicle id="138" depart="138.00">
        <route edges="BE EH HG GJ"/>
    </vehicle>
    <vehicle id="139" depart="139.00">
        <route edges="DE EH HE"/>
    </vehicle>
    <vehicle id="140" depart="140.00">
        <route edges="IL LJ JG GC CG"/>
    </vehicle>
    <vehicle id="141" depart="141.00">
        <route edges="HG GD DC"/>
    </vehicle>
    <vehicle id="142" depart="142.00">
        <route edges="GD DH HK KM"/>
    </vehicle>
    <vehicle id="143" depart="143.00">
        <route edges="KG GD DB BD"/>
    </vehicle>
    <vehicle id="144" depart="144.00">
        <route edges="FG GD DE"/>
    </vehicle>
    <vehicle id="145" depart="145.00">
        <route edges="AB BE EH HK KM MJ JK"/>
    </vehicle>
    <vehicle id="146" depart="146.00">
        <route edges="HG GD DC"/>
    </vehicle>
    <vehicle id="147" depart="147.00">
        <route edges="JG GJ"/>
    </vehicle>
    <vehicle id="148" depart="148.00">
        <route edges="FG GC CA AB"/>
    </vehicle>
    <vehicle id="149" depart="149.00">
        <route edges="BA AC CG GK KJ"/>
    </vehicle>
    <vehicle id="150" depart="150.00">
        <route edges="KM MJ JG GJ"/>
    </vehicle>
    <vehicle id="151" depart="151.00">
        <route edges="KG GK"/>
    </vehicle>
    <vehicle id="152" depart="152.00">
        <route edges="CD DC CA"/>
    </vehicle>
    <vehicle id="153" depart="153.00">
        <route edges="DG GK KM"/>
    </vehicle>
    <vehicle id="154" depart="154.00">
        <route edges="JL LI IJ JK KH"/>
    </vehicle>
    <vehicle id="155" depart="155.00">
        <route edges="KM MJ JG GD DA"/>
    </vehicle>
    <vehicle id="156" depart="156.00">
        <route edges="DB BD"/>
    </vehicle>
    <vehicle id="157" depart="157.00">
        <route edges="JK KJ"/>
    </vehicle>
    <vehicle id="158" depart="158.00">
        <route edges="FC CA AB BE EH HE"/>
    </vehicle>
    <vehicle id="159" depart="159.00">
        <route edges="CD DG GJ JL LI"/>
    </vehicle>
    <vehicle id="160" depart="160.00">
        <route edges="KH HK KM MJ"/>
    </vehicle>
    <vehicle id="161" depart="161.00">
        <route edges="JL LI IJ JK KJ"/>
    </vehicle>
    <vehicle id="162" depart="162.00">
        <route edges="AC CF FJ JG"/>
    </vehicle>
    <vehicle id="163" depart="163.00">
        <route edges="DH HG GJ JL LI"/>
    </vehicle>
    <vehicle id="164" depart="164.00">
        <route edges="JL LI IJ JK KH"/>
    </vehicle>
    <vehicle id="165" depart="165.00">
        <route edges="JL LI IJ JG GD DC"/>
    </vehicle>
    <vehicle id="166" depart="166.00">
        <route edges="JK KH HE EB BE"/>
    </vehicle>
    <vehicle id="167" depart="167.00">
        <route edges="KH"/>
    </vehicle>
    <vehicle id="168" depart="168.00">
        <route edges="DA AC CF FJ JM"/>
    </vehicle>
    <vehicle id="169" depart="169.00">
        <route edges="GC CD DG"/>
    </vehicle>
    <vehicle id="170" depart="170.00">
        <route edges="JL LI IF FC CD DA"/>
    </vehicle>
    <vehicle id="171" depart="171.00">
        <route edges="AC CG"/>
    </vehicle>
    <vehicle id="172" depart="172.00">
        <route edges="DH HK KH"/>
    </vehicle>
    <vehicle id="173" depart="173.00">
        <route edges="MJ JG GD DE"/>
    </vehicle>
    <vehicle id="174" depart="174.00">
        <route edges="HG GF FC"/>
    </vehicle>
    <vehicle id="175" depart="175.00">
        <route edges="MK KG GH"/>
    </vehicle>
    <vehicle id="176" depart="176.00">
        <route edges="LJ JG GD DB BE"/>
    </vehicle>
    <vehicle id="177" depart="177.00">
        <route edges="MJ JG GC CF"/>
    </vehicle>
    <vehicle id="178" depart="178.00">
        <route edges="MJ JG GD DC"/>
    </vehicle>
    <vehicle id="179" depart="179.00">
        <route edges="BE EH HG GF FG"/>
    </vehicle>
    <vehicle id="180" depart="180.00">
        <route edges="IL LJ JG GD DH"/>
    </vehicle>
    <vehicle id="181" depart="181.00">
        <route edges="HE ED DG GF"/>
    </vehicle>
    <vehicle id="182" depart="182.00">
        <route edges="EH HG GK"/>
    </vehicle>
    <vehicle id="183" depart="183.00">
        <route edges="DC CF FI IL"/>
    </vehicle>
    <vehicle id="184" depart="184.00">
        <route edges="AB BE EH HK KJ JL LI"/>
    </vehicle>
    <vehicle id="185" depart="185.00">
        <route edges="GH HG GF FI IL"/>
    </vehicle>
    <vehicle id="186" depart="186.00">
        <route edges="JG GJ JL LI IF"/>
    </vehicle>
    <vehicle id="187" depart="187.00">
        <route edges="ED DB BA"/>
    </vehicle>
    <vehicle id="188" depart="188.00">
        <route edges="HK KH HD DH"/>
    </vehicle>
    <vehicle id="189" depart="189.00">
        <route edges="DH HK KG"/>
    </vehicle>
    <vehicle id="190" depart="190.00">
        <route edges="IL LJ JG GD DG"/>
    </vehicle>
    <vehicle id="191" depart="191.00">
        <route edges="DG GF FC"/>
    </vehicle>
    <vehicle id="192" depart="192.00">
        <route edges="FC CD DG"/>
    </vehicle>
    <vehicle id="193" depart="193.00">
        <route edges="CA AC CF FG"/>
    </vehicle>
    <vehicle id="194" depart="194.00">
        <route edges="LJ JI IF"/>
    </vehicle>
    <vehicle id="195" depart="195.00">
        <route edges="KM MJ JM MK KH HE"/>
    </vehicle>
    <vehicle id="196" depart="196.00">
        <route edges="DG GJ"/>
    </vehicle>
    <vehicle id="197" depart="197.00">
        <route edges="AB BD DE"/>
    </vehicle>
    <vehicle id="198" depart="198.00">
        <route edges="FG GK"/>
    </vehicle>
    <vehicle id="199" depart="199.00">
        <route edges="HK KG GC"/>
    </vehicle>
    <vehicle id="200" depart="200.00">
        <route edges="FI IJ JG GD DA"/>
    </vehicle>
    <vehicle id="201" depart="201.00">
        <route edges="GC CG GK KM"/>
    </vehicle>
    <vehicle id="202" depart="202.00">
        <route edges="JL LI IF FC CF"/>
    </vehicle>
    <vehicle id="203" depart="203.00">
        <route edges="BD DG GF"/>
    </vehicle>
    <vehicle id="204" depart="204.00">
        <route edges="HG GK KH HE EB"/>
    </vehicle>
    <vehicle id="205" depart="205.00">
        <route edges="JM MK KJ JI"/>
    </vehicle>
    <vehicle id="206" depart="206.00">
        <route edges="IF FC CD DA"/>
    </vehicle>
    <vehicle id="207" depart="207.00">
        <route edges="CG GC CA AC"/>
    </vehicle>
    <vehicle id="208" depart="208.00">
        <route edges="DB BD DG GC"/>
    </vehicle>
    <vehicle id="209" depart="209.00">
        <route edges="KG GD DB BA"/>
    </vehicle>
    <vehicle id="210" depart="210.00">
        <route edges="FC CF FG GH HG"/>
    </vehicle>
    <vehicle id="211" depart="211.00">
        <route edges="CG GJ JI IJ"/>
    </vehicle>
    <vehicle id="212" depart="212.00">
        <route edges="GD DB"/>
    </vehicle>
    <vehicle id="213" depart="213.00">
        <route edges="HK KH HD DA AB"/>
    </vehicle>
    <vehicle id="214" depart="214.00">
        <route edges="JI"/>
    </vehicle>
    <vehicle id="215" depart="215.00">
        <route edges="BE EH HG GF FG"/>
    </vehicle>
    <vehicle id="216" depart="216.00">
        <route edges="CF FI IL LJ"/>
    </vehicle>
    <vehicle id="217" depart="217.00">
        <route edges="GF FC CA AD"/>
    </vehicle>
    <vehicle id="218" depart="218.00">
        <route edges="DB BE EH HK KG"/>
    </vehicle>
    <vehicle id="219" depart="219.00">
        <route edges="FI IL LJ JL"/>
    </vehicle>
    <vehicle id="220" depart="220.00">
        <route edges="IF FJ JM MK"/>
    </vehicle>
    <vehicle id="221" depart="221.00">
        <route edges="HD DC CF FI IL LJ"/>
    </vehicle>
    <vehicle id="222" depart="222.00">
        <route edges="KJ JM MK KH HE"/>
    </vehicle>
    <vehicle id="223" depart="223.00">
        <route edges="IL LJ JG GF"/>
    </vehicle>
    <vehicle id="224" depart="224.00">
        <route edges="JM MK KH HG GJ"/>
    </vehicle>
    <vehicle id="225" depart="225.00">
        <route edges="KM MJ JG"/>
    </vehicle>
    <vehicle id="226" depart="226.00">
        <route edges="GC CD DC"/>
    </vehicle>
    <vehicle id="227" depart="227.00">
        <route edges="DB BD DH HG"/>
    </vehicle>
    <vehicle id="228" depart="228.00">
        <route edges="JI IJ JG GH"/>
    </vehicle>
    <vehicle id="229" depart="229.00">
        <route edges="HG GD DE"/>
    </vehicle>
    <vehicle id="230" depart="230.00">
        <route edges="BA AC CD DE"/>
    </vehicle>
    <vehicle id="231" depart="231.00">
        <route edges="DE ED DH"/>
    </vehicle>
    <vehicle id="232" depart="232.00">
        <route edges="GH HG GF FC CA"/>
    </vehicle>
    <vehicle id="233" depart="233.00">
        <route edges="DB BA AC CF FI IJ"/>
    </vehicle>
    <vehicle id="234" depart="234.00">
        <route edges="IJ JK KH HE EB BA"/>
    </vehicle>
    <vehicle id="235" depart="235.00">
        <route edges="FC CG GJ"/>
    </vehicle>
    <vehicle id="236" depart="236.00">
        <route edges="FC CG"/>
    </vehicle>
    <vehicle id="237" depart="237.00">
        <route edges="FG GH HK KM"/>
    </vehicle>
    <vehicle id="238" depart="238.00">
        <route edges="HD DC CF FI IJ"/>
    </vehicle>
    <vehicle id="239" depart="239.00">
        <route edges="KH HG GJ JI"/>
    </vehicle>
    <vehicle id="240" depart="240.00">
        <route edges="EH HE EB BA AB"/>
    </vehicle>
    <vehicle id="241" depart="241.00">
        <route edges="EB BD DG GJ JI"/>
    </vehicle>
    <vehicle id="242" depart="242.00">
        <route edges="KG GF FI IL LJ"/>
    </vehicle>
    <vehicle id="243" depart="243.00">
        <route edges="FG GJ JG"/>
    </vehicle>
    <vehicle id="244" depart="244.00">
        <route edges="GJ JM MK KH HD"/>
    </vehicle>
    <vehicle id="245" depart="245.00">
        <route edges="DA"/>
    </vehicle>
    <vehicle id="246" depart="246.00">
        <route edges="FG GC CA AC"/>
    </vehicle>
    <vehicle id="247" depart="247.00">
        <route edges="EB BA AC CF FI IF"/>
    </vehicle>
    <vehicle id="248" depart="248.00">
        <route edges="FC CD"/>
    </vehicle>
    <vehicle id="249" depart="249.00">
        <route edges="GC CA"/>
    </vehicle>
</routes>
