<?xml version="1.0" encoding="UTF-8"?>

<!-- generated on 2023-06-30 14:29:58 by Eclipse SUMO netconvert Version 1.16.0
<configuration xmlns:xsi="http://www.w3.org/2001/XMLSchema-instance" xsi:noNamespaceSchemaLocation="http://sumo.dlr.de/xsd/netconvertConfiguration.xsd">

    <input>
        <node-files value="65-PIN3/src/solver/rs/network_files/nd/nd.nod.xml"/>
        <edge-files value="65-PIN3/src/solver/rs/network_files/nd/nd.edg-modified.xml"/>
    </input>

    <output>
        <output-file value="65-PIN3/src/solver/rs/network_files/net.net.xml"/>
    </output>

</configuration>
-->

<net version="1.16" junctionCornerDetail="5" limitTurnSpeed="5.50" xmlns:xsi="http://www.w3.org/2001/XMLSchema-instance" xsi:noNamespaceSchemaLocation="http://sumo.dlr.de/xsd/net_file.xsd">

    <location netOffset="100.00,300.00" convBoundary="0.00,0.00,400.00,300.00" origBoundary="-100.00,-300.00,300.00,0.00" projParameter="!"/>

    <edge id=":A_0" function="internal">
        <lane id=":A_0_0" index="0" speed="14.37" length="19.24" shape="107.20,301.60 103.21,301.05 99.11,299.41 94.90,296.67 90.58,292.84"/>
    </edge>
    <edge id=":A_1" function="internal">
        <lane id=":A_1_0" index="0" speed="8.94" length="4.59" shape="107.20,301.60 103.35,300.77 102.87,300.33"/>
    </edge>
    <edge id=":A_2" function="internal">
        <lane id=":A_2_0" index="0" speed="3.65" length="1.44" shape="107.20,301.60 106.00,300.80"/>
    </edge>
    <edge id=":A_9" function="internal">
        <lane id=":A_9_0" index="0" speed="8.94" length="13.40" shape="102.87,300.33 100.60,298.27 98.95,294.10 98.40,288.27"/>
    </edge>
    <edge id=":A_10" function="internal">
        <lane id=":A_10_0" index="0" speed="3.65" length="3.23" shape="106.00,300.80 105.60,300.00 106.00,299.20 107.20,298.40"/>
    </edge>
    <edge id=":A_3" function="internal">
        <lane id=":A_3_0" index="0" speed="7.65" length="12.89" shape="101.60,288.27 101.95,292.70 103.00,295.87 104.75,297.77 107.20,298.40"/>
    </edge>
    <edge id=":A_4" function="internal">
        <lane id=":A_4_0" index="0" speed="7.42" length="19.31" shape="101.60,288.27 100.91,294.41 98.84,297.21 95.40,296.69 90.58,292.84"/>
    </edge>
    <edge id=":A_5" function="internal">
        <lane id=":A_5_0" index="0" speed="3.65" length="4.67" shape="101.60,288.27 100.80,289.47 100.00,289.87 99.20,289.47 98.40,288.27"/>
    </edge>
    <edge id=":A_6" function="internal">
        <lane id=":A_6_0" index="0" speed="5.47" length="9.74" shape="92.84,290.58 95.27,292.52 97.01,292.78 98.05,291.37 98.40,288.27"/>
    </edge>
    <edge id=":A_7" function="internal">
        <lane id=":A_7_0" index="0" speed="13.42" length="16.74" shape="92.84,290.58 96.67,294.00 100.34,296.44 103.85,297.91 107.20,298.40"/>
    </edge>
    <edge id=":A_8" function="internal">
        <lane id=":A_8_0" index="0" speed="3.65" length="1.44" shape="92.84,290.58 93.12,291.99"/>
    </edge>
    <edge id=":A_11" function="internal">
        <lane id=":A_11_0" index="0" speed="3.65" length="3.23" shape="93.12,291.99 92.84,292.84 91.99,293.12 90.58,292.84"/>
    </edge>
    <edge id=":B_0" function="internal">
        <lane id=":B_0_0" index="0" speed="3.90" length="2.58" shape="398.40,103.20 398.30,102.50 398.00,102.00 397.50,101.70 396.80,101.60"/>
    </edge>
    <edge id=":B_1" function="internal">
        <lane id=":B_1_0" index="0" speed="6.08" length="7.74" shape="396.80,98.40 398.90,98.70 400.40,99.60 401.30,101.10 401.60,103.20"/>
    </edge>
    <edge id=":C_0" function="internal">
        <lane id=":C_0_0" index="0" speed="3.90" length="2.58" shape="298.40,3.20 298.30,2.50 298.00,2.00 297.50,1.70 296.80,1.60"/>
    </edge>
    <edge id=":C_1" function="internal">
        <lane id=":C_1_0" index="0" speed="6.08" length="7.74" shape="296.80,-1.60 298.90,-1.30 300.40,-0.40 301.30,1.10 301.60,3.20"/>
    </edge>
    <edge id=":D_0" function="internal">
        <lane id=":D_0_0" index="0" speed="9.73" length="21.49" shape="7.16,209.42 3.63,204.71 2.45,200.00 3.63,195.29 7.16,190.58"/>
    </edge>
    <edge id=":D_1" function="internal">
        <lane id=":D_1_0" index="0" speed="7.42" length="9.49" shape="7.16,209.42 3.31,204.60 2.81,201.32"/>
    </edge>
    <edge id=":D_2" function="internal">
        <lane id=":D_2_0" index="0" speed="3.65" length="1.44" shape="7.16,209.42 6.88,208.01"/>
    </edge>
    <edge id=":D_9" function="internal">
        <lane id=":D_9_0" index="0" speed="7.42" length="9.82" shape="2.81,201.32 2.79,201.16 5.59,199.09 11.73,198.40"/>
    </edge>
    <edge id=":D_10" function="internal">
        <lane id=":D_10_0" index="0" speed="3.65" length="3.23" shape="6.88,208.01 7.16,207.16 8.01,206.88 9.42,207.16"/>
    </edge>
    <edge id=":D_3" function="internal">
        <lane id=":D_3_0" index="0" speed="5.47" length="9.74" shape="11.73,201.60 8.63,201.95 7.22,202.99 7.48,204.73 9.42,207.16"/>
    </edge>
    <edge id=":D_4" function="internal">
        <lane id=":D_4_0" index="0" speed="7.42" length="19.31" shape="11.73,201.60 5.59,200.91 2.79,198.84 3.31,195.40 7.16,190.58"/>
    </edge>
    <edge id=":D_5" function="internal">
        <lane id=":D_5_0" index="0" speed="3.65" length="4.67" shape="11.73,201.60 10.53,200.80 10.13,200.00 10.53,199.20 11.73,198.40"/>
    </edge>
    <edge id=":D_6" function="internal">
        <lane id=":D_6_0" index="0" speed="5.47" length="9.74" shape="9.42,192.84 7.48,195.27 7.22,197.01 8.63,198.05 11.73,198.40"/>
    </edge>
    <edge id=":D_7" function="internal">
        <lane id=":D_7_0" index="0" speed="8.54" length="16.33" shape="9.42,192.84 6.74,196.42 5.84,200.00 6.74,203.58 9.42,207.16"/>
    </edge>
    <edge id=":D_8" function="internal">
        <lane id=":D_8_0" index="0" speed="3.65" length="1.30" shape="9.42,192.84 8.14,193.10"/>
    </edge>
    <edge id=":D_11" function="internal">
        <lane id=":D_11_0" index="0" speed="3.65" length="3.37" shape="8.14,193.10 8.01,193.12 7.16,192.84 6.88,191.99 7.16,190.58"/>
    </edge>
    <edge id=":E_0" function="internal">
        <lane id=":E_0_0" index="0" speed="6.51" length="9.03" shape="98.40,207.20 98.05,204.75 97.00,203.00 95.25,201.95 92.80,201.60"/>
    </edge>
    <edge id=":E_1" function="internal">
        <lane id=":E_1_0" index="0" speed="60.00" length="14.40" shape="98.40,207.20 98.40,192.80"/>
    </edge>
    <edge id=":E_2" function="internal">
        <lane id=":E_2_0" index="0" speed="8.00" length="4.07" shape="98.40,207.20 98.95,203.35 99.04,203.20"/>
    </edge>
    <edge id=":E_3" function="internal">
        <lane id=":E_3_0" index="0" speed="3.65" length="1.44" shape="98.40,207.20 99.20,206.00"/>
    </edge>
    <edge id=":E_16" function="internal">
        <lane id=":E_16_0" index="0" speed="8.00" length="10.13" shape="99.04,203.20 100.60,200.60 103.35,198.95 107.20,198.40"/>
    </edge>
    <edge id=":E_17" function="internal">
        <lane id=":E_17_0" index="0" speed="3.65" length="3.23" shape="99.20,206.00 100.00,205.60 100.80,206.00 101.60,207.20"/>
    </edge>
    <edge id=":E_4" function="internal">
        <lane id=":E_4_0" index="0" speed="6.51" length="9.03" shape="107.20,201.60 104.75,201.95 103.00,203.00 101.95,204.75 101.60,207.20"/>
    </edge>
    <edge id=":E_5" function="internal">
        <lane id=":E_5_0" index="0" speed="60.00" length="14.40" shape="107.20,201.60 92.80,201.60"/>
    </edge>
    <edge id=":E_6" function="internal">
        <lane id=":E_6_0" index="0" speed="8.00" length="14.19" shape="107.20,201.60 103.35,201.05 100.60,199.40 98.95,196.65 98.40,192.80"/>
    </edge>
    <edge id=":E_7" function="internal">
        <lane id=":E_7_0" index="0" speed="3.65" length="4.67" shape="107.20,201.60 106.00,200.80 105.60,200.00 106.00,199.20 107.20,198.40"/>
    </edge>
    <edge id=":E_8" function="internal">
        <lane id=":E_8_0" index="0" speed="6.51" length="9.03" shape="101.60,192.80 101.95,195.25 103.00,197.00 104.75,198.05 107.20,198.40"/>
    </edge>
    <edge id=":E_9" function="internal">
        <lane id=":E_9_0" index="0" speed="60.00" length="14.40" shape="101.60,192.80 101.60,207.20"/>
    </edge>
    <edge id=":E_10" function="internal">
        <lane id=":E_10_0" index="0" speed="8.00" length="4.07" shape="101.60,192.80 101.05,196.65 100.96,196.80"/>
    </edge>
    <edge id=":E_11" function="internal">
        <lane id=":E_11_0" index="0" speed="3.65" length="1.44" shape="101.60,192.80 100.80,194.00"/>
    </edge>
    <edge id=":E_18" function="internal">
        <lane id=":E_18_0" index="0" speed="8.00" length="10.13" shape="100.96,196.80 99.40,199.40 96.65,201.05 92.80,201.60"/>
    </edge>
    <edge id=":E_19" function="internal">
        <lane id=":E_19_0" index="0" speed="3.65" length="3.23" shape="100.80,194.00 100.00,194.40 99.20,194.00 98.40,192.80"/>
    </edge>
    <edge id=":E_12" function="internal">
        <lane id=":E_12_0" index="0" speed="6.51" length="9.03" shape="92.80,198.40 95.25,198.05 97.00,197.00 98.05,195.25 98.40,192.80"/>
    </edge>
    <edge id=":E_13" function="internal">
        <lane id=":E_13_0" index="0" speed="60.00" length="14.40" shape="92.80,198.40 107.20,198.40"/>
    </edge>
    <edge id=":E_14" function="internal">
        <lane id=":E_14_0" index="0" speed="8.00" length="14.19" shape="92.80,198.40 96.65,198.95 99.40,200.60 101.05,203.35 101.60,207.20"/>
    </edge>
    <edge id=":E_15" function="internal">
        <lane id=":E_15_0" index="0" speed="3.65" length="4.67" shape="92.80,198.40 94.00,199.20 94.40,200.00 94.00,200.80 92.80,201.60"/>
    </edge>
    <edge id=":F_0" function="internal">
        <lane id=":F_0_0" index="0" speed="6.51" length="9.03" shape="198.40,207.20 198.05,204.75 197.00,203.00 195.25,201.95 192.80,201.60"/>
    </edge>
    <edge id=":F_1" function="internal">
        <lane id=":F_1_0" index="0" speed="60.00" length="14.40" shape="198.40,207.20 198.40,192.80"/>
    </edge>
    <edge id=":F_2" function="internal">
        <lane id=":F_2_0" index="0" speed="8.00" length="4.07" shape="198.40,207.20 198.95,203.35 199.04,203.20"/>
    </edge>
    <edge id=":F_3" function="internal">
        <lane id=":F_3_0" index="0" speed="3.65" length="1.44" shape="198.40,207.20 199.20,206.00"/>
    </edge>
    <edge id=":F_16" function="internal">
        <lane id=":F_16_0" index="0" speed="8.00" length="10.13" shape="199.04,203.20 200.60,200.60 203.35,198.95 207.20,198.40"/>
    </edge>
    <edge id=":F_17" function="internal">
        <lane id=":F_17_0" index="0" speed="3.65" length="3.23" shape="199.20,206.00 200.00,205.60 200.80,206.00 201.60,207.20"/>
    </edge>
    <edge id=":F_4" function="internal">
        <lane id=":F_4_0" index="0" speed="6.51" length="9.03" shape="207.20,201.60 204.75,201.95 203.00,203.00 201.95,204.75 201.60,207.20"/>
    </edge>
    <edge id=":F_5" function="internal">
        <lane id=":F_5_0" index="0" speed="60.00" length="14.40" shape="207.20,201.60 192.80,201.60"/>
    </edge>
    <edge id=":F_6" function="internal">
        <lane id=":F_6_0" index="0" speed="8.00" length="14.19" shape="207.20,201.60 203.35,201.05 200.60,199.40 198.95,196.65 198.40,192.80"/>
    </edge>
    <edge id=":F_7" function="internal">
        <lane id=":F_7_0" index="0" speed="3.65" length="4.67" shape="207.20,201.60 206.00,200.80 205.60,200.00 206.00,199.20 207.20,198.40"/>
    </edge>
    <edge id=":F_8" function="internal">
        <lane id=":F_8_0" index="0" speed="6.51" length="9.03" shape="201.60,192.80 201.95,195.25 203.00,197.00 204.75,198.05 207.20,198.40"/>
    </edge>
    <edge id=":F_9" function="internal">
        <lane id=":F_9_0" index="0" speed="60.00" length="14.40" shape="201.60,192.80 201.60,207.20"/>
    </edge>
    <edge id=":F_10" function="internal">
        <lane id=":F_10_0" index="0" speed="8.00" length="4.07" shape="201.60,192.80 201.05,196.65 200.96,196.80"/>
    </edge>
    <edge id=":F_11" function="internal">
        <lane id=":F_11_0" index="0" speed="3.65" length="1.44" shape="201.60,192.80 200.80,194.00"/>
    </edge>
    <edge id=":F_18" function="internal">
        <lane id=":F_18_0" index="0" speed="8.00" length="10.13" shape="200.96,196.80 199.40,199.40 196.65,201.05 192.80,201.60"/>
    </edge>
    <edge id=":F_19" function="internal">
        <lane id=":F_19_0" index="0" speed="3.65" length="3.23" shape="200.80,194.00 200.00,194.40 199.20,194.00 198.40,192.80"/>
    </edge>
    <edge id=":F_12" function="internal">
        <lane id=":F_12_0" index="0" speed="6.51" length="9.03" shape="192.80,198.40 195.25,198.05 197.00,197.00 198.05,195.25 198.40,192.80"/>
    </edge>
    <edge id=":F_13" function="internal">
        <lane id=":F_13_0" index="0" speed="60.00" length="14.40" shape="192.80,198.40 207.20,198.40"/>
    </edge>
    <edge id=":F_14" function="internal">
        <lane id=":F_14_0" index="0" speed="8.00" length="14.19" shape="192.80,198.40 196.65,198.95 199.40,200.60 201.05,203.35 201.60,207.20"/>
    </edge>
    <edge id=":F_15" function="internal">
        <lane id=":F_15_0" index="0" speed="3.65" length="4.67" shape="192.80,198.40 194.00,199.20 194.40,200.00 194.00,200.80 192.80,201.60"/>
    </edge>
    <edge id=":G_0" function="internal">
        <lane id=":G_0_0" index="0" speed="60.00" length="14.40" shape="307.20,201.60 292.80,201.60"/>
    </edge>
    <edge id=":G_1" function="internal">
        <lane id=":G_1_0" index="0" speed="8.00" length="4.07" shape="307.20,201.60 303.35,201.05 303.20,200.96"/>
    </edge>
    <edge id=":G_2" function="internal">
        <lane id=":G_2_0" index="0" speed="3.65" length="1.44" shape="307.20,201.60 306.00,200.80"/>
    </edge>
    <edge id=":G_9" function="internal">
        <lane id=":G_9_0" index="0" speed="8.00" length="10.13" shape="303.20,200.96 300.60,199.40 298.95,196.65 298.40,192.80"/>
    </edge>
    <edge id=":G_10" function="internal">
        <lane id=":G_10_0" index="0" speed="3.65" length="3.23" shape="306.00,200.80 305.60,200.00 306.00,199.20 307.20,198.40"/>
    </edge>
    <edge id=":G_3" function="internal">
        <lane id=":G_3_0" index="0" speed="6.51" length="9.03" shape="301.60,192.80 301.95,195.25 303.00,197.00 304.75,198.05 307.20,198.40"/>
    </edge>
    <edge id=":G_4" function="internal">
        <lane id=":G_4_0" index="0" speed="8.00" length="14.19" shape="301.60,192.80 301.05,196.65 299.40,199.40 296.65,201.05 292.80,201.60"/>
    </edge>
    <edge id=":G_5" function="internal">
        <lane id=":G_5_0" index="0" speed="3.65" length="4.67" shape="301.60,192.80 300.80,194.00 300.00,194.40 299.20,194.00 298.40,192.80"/>
    </edge>
    <edge id=":G_6" function="internal">
        <lane id=":G_6_0" index="0" speed="6.51" length="9.03" shape="292.80,198.40 295.25,198.05 297.00,197.00 298.05,195.25 298.40,192.80"/>
    </edge>
    <edge id=":G_7" function="internal">
        <lane id=":G_7_0" index="0" speed="60.00" length="14.40" shape="292.80,198.40 307.20,198.40"/>
    </edge>
    <edge id=":G_8" function="internal">
        <lane id=":G_8_0" index="0" speed="3.65" length="1.44" shape="292.80,198.40 294.00,199.20"/>
    </edge>
    <edge id=":G_11" function="internal">
        <lane id=":G_11_0" index="0" speed="3.65" length="3.23" shape="294.00,199.20 294.40,200.00 294.00,200.80 292.80,201.60"/>
    </edge>
    <edge id=":H_0" function="internal">
        <lane id=":H_0_0" index="0" speed="12.76" length="24.37" shape="401.60,192.80 400.56,196.90 397.45,201.01 392.27,205.14 385.01,209.28"/>
    </edge>
    <edge id=":H_1" function="internal">
        <lane id=":H_1_0" index="0" speed="10.09" length="4.60" shape="401.60,192.80 400.40,196.65 399.95,196.99"/>
    </edge>
    <edge id=":H_2" function="internal">
        <lane id=":H_2_0" index="0" speed="3.65" length="1.44" shape="401.60,192.80 400.80,194.00"/>
    </edge>
    <edge id=":H_9" function="internal">
        <lane id=":H_9_0" index="0" speed="10.09" length="18.57" shape="399.95,196.99 396.81,199.40 390.83,201.05 382.44,201.60"/>
    </edge>
    <edge id=":H_10" function="internal">
        <lane id=":H_10_0" index="0" speed="3.65" length="3.23" shape="400.80,194.00 400.00,194.40 399.20,194.00 398.40,192.80"/>
    </edge>
    <edge id=":H_3" function="internal">
        <lane id=":H_3_0" index="0" speed="8.99" length="18.20" shape="382.44,198.40 389.43,198.05 394.41,197.00 397.40,195.25 398.40,192.80"/>
    </edge>
    <edge id=":H_4" function="internal">
        <lane id=":H_4_0" index="0" speed="6.26" length="15.29" shape="382.44,198.40 386.25,199.71 388.14,202.80 387.83,206.41 385.01,209.28"/>
    </edge>
    <edge id=":H_5" function="internal">
        <lane id=":H_5_0" index="0" speed="3.65" length="4.67" shape="382.44,198.40 383.64,199.20 384.04,200.00 383.64,200.80 382.44,201.60"/>
    </edge>
    <edge id=":H_6" function="internal">
        <lane id=":H_6_0" index="0" speed="5.60" length="11.85" shape="383.58,206.42 387.13,204.31 388.12,202.80 386.56,201.90 382.44,201.60"/>
    </edge>
    <edge id=":H_7" function="internal">
        <lane id=":H_7_0" index="0" speed="11.84" length="20.87" shape="383.58,206.42 390.07,202.79 394.70,199.31 397.47,195.98 398.40,192.80"/>
    </edge>
    <edge id=":H_8" function="internal">
        <lane id=":H_8_0" index="0" speed="3.65" length="1.44" shape="383.58,206.42 385.01,206.60"/>
    </edge>
    <edge id=":H_11" function="internal">
        <lane id=":H_11_0" index="0" speed="3.65" length="3.23" shape="385.01,206.60 385.73,207.14 385.73,208.03 385.01,209.28"/>
    </edge>
    <edge id=":I_0" function="internal">
        <lane id=":I_0_0" index="0" speed="5.47" length="9.74" shape="98.40,111.73 98.05,108.63 97.01,107.22 95.27,107.48 92.84,109.42"/>
    </edge>
    <edge id=":I_1" function="internal">
        <lane id=":I_1_0" index="0" speed="15.85" length="23.49" shape="98.40,111.73 98.95,105.76 100.59,100.24 103.33,95.18 107.16,90.58"/>
    </edge>
    <edge id=":I_2" function="internal">
        <lane id=":I_2_0" index="0" speed="9.73" length="21.49" shape="98.40,111.73 99.23,105.90 101.73,101.73 105.90,99.23 111.73,98.40"/>
    </edge>
    <edge id=":I_3" function="internal">
        <lane id=":I_3_0" index="0" speed="3.65" length="4.67" shape="98.40,111.73 99.20,110.53 100.00,110.13 100.80,110.53 101.60,111.73"/>
    </edge>
    <edge id=":I_4" function="internal">
        <lane id=":I_4_0" index="0" speed="8.54" length="16.33" shape="111.73,101.60 107.30,102.23 104.13,104.13 102.23,107.30 101.60,111.73"/>
    </edge>
    <edge id=":I_5" function="internal">
        <lane id=":I_5_0" index="0" speed="14.99" length="20.98" shape="111.73,101.60 106.40,102.09 101.47,103.56 96.95,106.00 92.84,109.42"/>
    </edge>
    <edge id=":I_6" function="internal">
        <lane id=":I_6_0" index="0" speed="7.42" length="19.31" shape="111.73,101.60 105.59,100.91 102.79,98.84 103.31,95.40 107.16,90.58"/>
    </edge>
    <edge id=":I_7" function="internal">
        <lane id=":I_7_0" index="0" speed="3.65" length="4.67" shape="111.73,101.60 110.53,100.80 110.13,100.00 110.53,99.20 111.73,98.40"/>
    </edge>
    <edge id=":I_8" function="internal">
        <lane id=":I_8_0" index="0" speed="5.47" length="9.74" shape="109.42,92.84 107.48,95.27 107.22,97.01 108.63,98.05 111.73,98.40"/>
    </edge>
    <edge id=":I_9" function="internal">
        <lane id=":I_9_0" index="0" speed="14.99" length="20.98" shape="109.42,92.84 106.00,96.95 103.56,101.47 102.09,106.40 101.60,111.73"/>
    </edge>
    <edge id=":I_10" function="internal">
        <lane id=":I_10_0" index="0" speed="60.00" length="23.45" shape="109.42,92.84 92.84,109.42"/>
    </edge>
    <edge id=":I_11" function="internal">
        <lane id=":I_11_0" index="0" speed="3.65" length="1.44" shape="109.42,92.84 108.01,93.12"/>
    </edge>
    <edge id=":I_16" function="internal">
        <lane id=":I_16_0" index="0" speed="3.65" length="3.23" shape="108.01,93.12 107.16,92.84 106.88,91.99 107.16,90.58"/>
    </edge>
    <edge id=":I_12" function="internal">
        <lane id=":I_12_0" index="0" speed="60.00" length="23.45" shape="90.58,107.16 107.16,90.58"/>
    </edge>
    <edge id=":I_13" function="internal">
        <lane id=":I_13_0" index="0" speed="15.85" length="6.48" shape="90.58,107.16 95.18,103.33 95.61,103.10"/>
    </edge>
    <edge id=":I_14" function="internal">
        <lane id=":I_14_0" index="0" speed="7.42" length="6.00" shape="90.58,107.16 95.27,103.42"/>
    </edge>
    <edge id=":I_15" function="internal">
        <lane id=":I_15_0" index="0" speed="3.65" length="1.44" shape="90.58,107.16 91.99,106.88"/>
    </edge>
    <edge id=":I_17" function="internal">
        <lane id=":I_17_0" index="0" speed="15.85" length="17.01" shape="95.61,103.10 100.24,100.59 105.76,98.95 111.73,98.40"/>
    </edge>
    <edge id=":I_18" function="internal">
        <lane id=":I_18_0" index="0" speed="7.42" length="13.30" shape="95.27,103.42 95.40,103.31 98.84,102.79 100.91,105.59 101.60,111.73"/>
    </edge>
    <edge id=":I_19" function="internal">
        <lane id=":I_19_0" index="0" speed="3.65" length="3.23" shape="91.99,106.88 92.84,107.16 93.12,108.01 92.84,109.42"/>
    </edge>
    <edge id=":J_0" function="internal">
        <lane id=":J_0_0" index="0" speed="7.33" length="11.73" shape="198.40,110.40 198.05,106.55 197.00,103.80 195.25,102.15 192.80,101.60"/>
    </edge>
    <edge id=":J_1" function="internal">
        <lane id=":J_1_0" index="0" speed="8.67" length="16.85" shape="198.40,110.40 198.95,105.15 200.60,101.40 203.35,99.15 207.20,98.40"/>
    </edge>
    <edge id=":J_2" function="internal">
        <lane id=":J_2_0" index="0" speed="3.65" length="4.67" shape="198.40,110.40 199.20,109.20 200.00,108.80 200.80,109.20 201.60,110.40"/>
    </edge>
    <edge id=":J_3" function="internal">
        <lane id=":J_3_0" index="0" speed="6.51" length="9.03" shape="207.20,104.80 204.75,105.15 203.00,106.20 201.95,107.95 201.60,110.40"/>
    </edge>
    <edge id=":J_4" function="internal">
        <lane id=":J_4_0" index="0" speed="60.00" length="14.83" shape="207.20,104.80 202.54,104.30 199.11,103.20 196.12,102.10 192.80,101.60"/>
    </edge>
    <edge id=":J_5" function="internal">
        <lane id=":J_5_0" index="0" speed="3.65" length="1.44" shape="207.20,101.60 206.00,100.80"/>
    </edge>
    <edge id=":J_10" function="internal">
        <lane id=":J_10_0" index="0" speed="3.65" length="3.23" shape="206.00,100.80 205.60,100.00 206.00,99.20 207.20,98.40"/>
    </edge>
    <edge id=":J_6" function="internal">
        <lane id=":J_6_0" index="0" speed="60.00" length="14.62" shape="192.80,98.40 196.12,97.90 199.11,96.80 202.54,95.70 207.20,95.20"/>
        <lane id=":J_6_1" index="1" speed="60.00" length="14.62" shape="192.80,98.40 207.20,98.40"/>
    </edge>
    <edge id=":J_8" function="internal">
        <lane id=":J_8_0" index="0" speed="8.67" length="5.00" shape="192.80,98.40 196.65,99.15 197.48,99.83"/>
    </edge>
    <edge id=":J_9" function="internal">
        <lane id=":J_9_0" index="0" speed="3.65" length="1.44" shape="192.80,98.40 194.00,99.20"/>
    </edge>
    <edge id=":J_11" function="internal">
        <lane id=":J_11_0" index="0" speed="8.67" length="11.85" shape="197.48,99.83 199.40,101.40 201.05,105.15 201.60,110.40"/>
    </edge>
    <edge id=":J_12" function="internal">
        <lane id=":J_12_0" index="0" speed="3.65" length="3.23" shape="194.00,99.20 194.40,100.00 194.00,100.80 192.80,101.60"/>
    </edge>
    <edge id=":K_0" function="internal">
        <lane id=":K_0_0" index="0" speed="6.51" length="9.03" shape="298.40,110.40 298.05,107.95 297.00,106.20 295.25,105.15 292.80,104.80"/>
    </edge>
    <edge id=":K_1" function="internal">
        <lane id=":K_1_0" index="0" speed="60.00" length="20.80" shape="298.40,110.40 298.40,89.60"/>
    </edge>
    <edge id=":K_2" function="internal">
        <lane id=":K_2_0" index="0" speed="8.67" length="16.85" shape="298.40,110.40 298.95,105.15 300.60,101.40 303.35,99.15 307.20,98.40"/>
    </edge>
    <edge id=":K_3" function="internal">
        <lane id=":K_3_0" index="0" speed="3.65" length="4.67" shape="298.40,110.40 299.20,109.20 300.00,108.80 300.80,109.20 301.60,110.40"/>
    </edge>
    <edge id=":K_4" function="internal">
        <lane id=":K_4_0" index="0" speed="7.33" length="11.73" shape="307.20,101.60 304.75,102.15 303.00,103.80 301.95,106.55 301.60,110.40"/>
    </edge>
    <edge id=":K_5" function="internal">
        <lane id=":K_5_0" index="0" speed="60.00" length="14.40" shape="307.20,101.60 292.80,101.60"/>
    </edge>
    <edge id=":K_6" function="internal">
        <lane id=":K_6_0" index="0" speed="8.67" length="5.00" shape="307.20,101.60 303.35,100.85 302.52,100.17"/>
    </edge>
    <edge id=":K_7" function="internal">
        <lane id=":K_7_0" index="0" speed="3.65" length="1.44" shape="307.20,101.60 306.00,100.80"/>
    </edge>
    <edge id=":K_16" function="internal">
        <lane id=":K_16_0" index="0" speed="8.67" length="11.85" shape="302.52,100.17 300.60,98.60 298.95,94.85 298.40,89.60"/>
    </edge>
    <edge id=":K_17" function="internal">
        <lane id=":K_17_0" index="0" speed="3.65" length="3.23" shape="306.00,100.80 305.60,100.00 306.00,99.20 307.20,98.40"/>
    </edge>
    <edge id=":K_8" function="internal">
        <lane id=":K_8_0" index="0" speed="7.33" length="11.73" shape="301.60,89.60 301.95,93.45 303.00,96.20 304.75,97.85 307.20,98.40"/>
    </edge>
    <edge id=":K_9" function="internal">
        <lane id=":K_9_0" index="0" speed="60.00" length="20.80" shape="301.60,89.60 301.60,110.40"/>
    </edge>
    <edge id=":K_10" function="internal">
        <lane id=":K_10_0" index="0" speed="8.67" length="16.85" shape="301.60,89.60 301.05,94.85 299.40,98.60 296.65,100.85 292.80,101.60"/>
    </edge>
    <edge id=":K_11" function="internal">
        <lane id=":K_11_0" index="0" speed="3.65" length="4.67" shape="301.60,89.60 300.80,90.80 300.00,91.20 299.20,90.80 298.40,89.60"/>
    </edge>
    <edge id=":K_12" function="internal">
        <lane id=":K_12_0" index="0" speed="6.51" length="9.03" shape="292.80,95.20 295.25,94.85 297.00,93.80 298.05,92.05 298.40,89.60"/>
    </edge>
    <edge id=":K_13" function="internal">
        <lane id=":K_13_0" index="0" speed="60.00" length="14.83" shape="292.80,95.20 297.46,95.70 300.89,96.80 303.88,97.90 307.20,98.40"/>
    </edge>
    <edge id=":K_14" function="internal">
        <lane id=":K_14_0" index="0" speed="8.67" length="3.71" shape="292.80,98.40 296.44,99.11"/>
    </edge>
    <edge id=":K_15" function="internal">
        <lane id=":K_15_0" index="0" speed="3.65" length="1.44" shape="292.80,98.40 294.00,99.20"/>
    </edge>
    <edge id=":K_18" function="internal">
        <lane id=":K_18_0" index="0" speed="8.67" length="13.14" shape="296.44,99.11 296.65,99.15 299.40,101.40 301.05,105.15 301.60,110.40"/>
    </edge>
    <edge id=":K_19" function="internal">
        <lane id=":K_19_0" index="0" speed="3.65" length="3.23" shape="294.00,99.20 294.40,100.00 294.00,100.80 292.80,101.60"/>
    </edge>
    <edge id=":L_0" function="internal">
        <lane id=":L_0_0" index="0" speed="21.50" length="16.80" shape="208.92,297.33 205.22,298.94 201.06,300.30 196.80,301.25 192.80,301.60"/>
    </edge>
    <edge id=":L_1" function="internal">
        <lane id=":L_1_0" index="0" speed="7.44" length="5.30" shape="208.92,297.33 204.32,298.89 203.89,298.82"/>
    </edge>
    <edge id=":L_2" function="internal">
        <lane id=":L_2_0" index="0" speed="3.65" length="1.44" shape="208.92,297.33 207.49,297.15"/>
    </edge>
    <edge id=":L_9" function="internal">
        <lane id=":L_9_0" index="0" speed="7.44" length="11.10" shape="203.89,298.82 201.03,298.33 199.06,295.64 198.40,290.82"/>
    </edge>
    <edge id=":L_10" function="internal">
        <lane id=":L_10_0" index="0" speed="3.65" length="3.23" shape="207.49,297.15 206.78,296.61 206.78,295.72 207.49,294.46"/>
    </edge>
    <edge id=":L_3" function="internal">
        <lane id=":L_3_0" index="0" speed="5.74" length="9.18" shape="201.60,290.82 201.97,293.52 203.07,295.03 204.91,295.34 207.49,294.46"/>
    </edge>
    <edge id=":L_4" function="internal">
        <lane id=":L_4_0" index="0" speed="8.42" length="15.82" shape="201.60,290.82 201.05,295.54 199.40,298.91 196.65,300.93 192.80,301.60"/>
    </edge>
    <edge id=":L_5" function="internal">
        <lane id=":L_5_0" index="0" speed="3.65" length="4.67" shape="201.60,290.82 200.80,292.02 200.00,292.42 199.20,292.02 198.40,290.82"/>
    </edge>
    <edge id=":L_6" function="internal">
        <lane id=":L_6_0" index="0" speed="7.02" length="10.67" shape="192.80,298.40 195.25,297.93 197.00,296.51 198.05,294.14 198.40,290.82"/>
    </edge>
    <edge id=":L_7" function="internal">
        <lane id=":L_7_0" index="0" speed="20.55" length="15.33" shape="192.80,298.40 196.58,298.10 200.34,297.27 204.01,296.02 207.49,294.46"/>
    </edge>
    <edge id=":L_8" function="internal">
        <lane id=":L_8_0" index="0" speed="3.65" length="1.44" shape="192.80,298.40 194.00,299.20"/>
    </edge>
    <edge id=":L_11" function="internal">
        <lane id=":L_11_0" index="0" speed="3.65" length="3.23" shape="194.00,299.20 194.40,300.00 194.00,300.80 192.80,301.60"/>
    </edge>
    <edge id=":M_0" function="internal">
        <lane id=":M_0_0" index="0" speed="4.20" length="1.26" shape="201.33,1.60 201.01,1.63 200.71,1.72 200.44,1.86 200.19,2.07"/>
    </edge>
    <edge id=":M_1" function="internal">
        <lane id=":M_1_0" index="0" speed="6.63" length="3.77" shape="197.93,-0.19 198.67,-0.81 199.48,-1.25 200.37,-1.51 201.33,-1.60"/>
    </edge>

    <edge id="AD" from="A" to="D" priority="-1" length="100.00">
        <lane id="AD_0" index="0" speed="60.00" length="100.00" shape="90.58,292.84 7.16,209.42"/>
    </edge>
    <edge id="AE" from="A" to="E" priority="-1" length="70.00">
        <lane id="AE_0" index="0" speed="60.00" length="70.00" shape="98.40,288.27 98.40,207.20"/>
    </edge>
    <edge id="AL" from="A" to="L" priority="-1" length="90.00">