<?xml version="1.0" encoding="UTF-8"?>

<!-- generated on 2023-06-27 10:18:46 by Eclipse SUMO duarouter Version 1.16.0
<configuration xmlns:xsi="http://www.w3.org/2001/XMLSchema-instance" xsi:noNamespaceSchemaLocation="http://sumo.dlr.de/xsd/duarouterConfiguration.xsd">

    <input>
        <net-file value="65-PIN3/src/solver/rs/network_files/net.net.xml"/>
        <route-files value="65-PIN3/src/solver/rs/network_files/nd/trips/nd50output.trips.xml"/>
    </input>

    <output>
        <output-file value="65-PIN3/src/solver/rs/network_files/net.rou.xml"/>
    </output>

    <report>
        <ignore-errors value="true"/>
    </report>

</configuration>
-->

<routes xmlns:xsi="http://www.w3.org/2001/XMLSchema-instance" xsi:noNamespaceSchemaLocation="http://sumo.dlr.de/xsd/routes_file.xsd">
    <vehicle id="0" depart="0.00">
        <route edges="IJ JI IE EA AL"/>
    </vehicle>
    <vehicle id="1" depart="1.00">
        <route edges="ED DI"/>
    </vehicle>
    <vehicle id="2" depart="2.00">
        <route edges="JK KJ JF"/>
    </vehicle>
    <vehicle id="3" depart="3.00">
        <route edges="LF FJ JK KB BH"/>
    </vehicle>
    <vehicle id="4" depart="4.00">
        <route edges="FL LF FE EA AL"/>
    </vehicle>
    <vehicle id="5" depart="5.00">
        <route edges="DI IM MC CK KG GH HB"/>
    </vehicle>
    <vehicle id="6" depart="6.00">
        <route edges="AL LF FJ JI ID DE"/>
    </vehicle>
    <vehicle id="7" depart="7.00">
        <route edges="IM MC CK KG GH HG"/>
    </vehicle>
    <vehicle id="8" depart="8.00">
        <route edges="DI ID"/>
    </vehicle>
    <vehicle id="9" depart="9.00">
        <route edges="KC CM MI IE EA AL LA AE"/>
    </vehicle>
    <vehicle id="10" depart="10.00">
        <route edges="KC CM MI IJ JI"/>
    </vehicle>
    <vehicle id="11" depart="11.00">
        <route edges="FE EI IM MC CK"/>
    </vehicle>
    <vehicle id="12" depart="12.00">
        <route edges="MI IE EF FE"/>
    </vehicle>
    <vehicle id="13" depart="13.00">
        <route edges="BH HB BK"/>
    </vehicle>
    <vehicle id="14" depart="14.00">
        <route edges="KJ JI IE"/>
    </vehicle>
    <vehicle id="15" depart="15.00">
        <route edges="KC CM MI IJ JK"/>
    </vehicle>
    <vehicle id="16" depart="16.00">
        <route edges="HG GK KC CM MI"/>
    </vehicle>
    <vehicle id="17" depart="17.00">
        <route edges="FG GH HL"/>
    </vehicle>
    <vehicle id="18" depart="18.00">
        <route edges="KG GK KC CM MI IE"/>
    </vehicle>
    <vehicle id="19" depart="19.00">
        <route edges="LA AE EI ID"/>
    </vehicle>
    <vehicle id="20" depart="20.00">
        <route edges="JI IE EA AL"/>
    </vehicle>
    <vehicle id="21" depart="21.00">
        <route edges="DI IE EF"/>
    </vehicle>
    <vehicle id="22" depart="22.00">
        <route edges="BH HL LA AE ED DI"/>
    </vehicle>
    <vehicle id="23" depart="23.00">
        <route edges="BK KG GF FE ED"/>
    </vehicle>
    <vehicle id="24" depart="24.00">
        <route edges="IJ JF FG"/>
    </vehicle>
    <vehicle id="25" depart="25.00">
        <route edges="FG GK KC CM MI ID DE"/>
    </vehicle>
    <vehicle id="26" depart="26.00">
        <route edges="ED DI IM MC"/>
    </vehicle>
    <vehicle id="27" depart="27.00">
        <route edges="IM MC CK KJ JI IE"/>
    </vehicle>
    <vehicle id="28" depart="28.00">
        <route edges="CM MI IJ JK"/>
    </vehicle>
    <vehicle id="29" depart="29.00">
        <route edges="CK KG GF FG"/>
    </vehicle>
    <vehicle id="30" depart="30.00">
        <route edges="IJ"/>
    </vehicle>
    <vehicle id="31" depart="31.00">
        <route edges="HL LF FJ JF"/>
    </vehicle>
    <vehicle id="32" depart="32.00">
        <route edges="KJ JK KB"/>
    </vehicle>
    <vehicle id="33" depart="33.00">
        <route edges="DI IE EA AL"/>
    </vehicle>
    <vehicle id="34" depart="34.00">
        <route edges="EI IE ED"/>
    </vehicle>
    <vehicle id="35" depart="35.00">
        <route edges="DE EI IM MC"/>
    </vehicle>
    <vehicle id="36" depart="36.00">
        <route edges="LA AE EI"/>
    </vehicle>
    <vehicle id="37" depart="37.00">
        <route edges="IM MC CK KG GF FJ"/>
    </vehicle>
    <vehicle id="38" depart="38.00">
        <route edges="LH HG GH"/>
    </vehicle>
    <vehicle id="39" depart="39.00">
        <route edges="ED DI IE EA"/>
    </vehicle>
    <vehicle id="40" depart="40.00">
        <route edges="HL LA AE ED"/>
    </vehicle>
    <vehicle id="41" depart="41.00">
        <route edges="ID DE EA AL LF"/>
    </vehicle>
    <vehicle id="42" depart="42.00">
        <route edges="FJ JF FE ED DI"/>
    </vehicle>
    <vehicle id="43" depart="43.00">
        <route edges="HB"/>
    </vehicle>
    <vehicle id="44" depart="44.00">
        <route edges="BH HG GF FE EA AL"/>
    </vehicle>
    <vehicle id="45" depart="45.00">
        <route edges="BK KJ JI IJ"/>
    </vehicle>
    <vehicle id="46" depart="46.00">
        <route edges="KC CM MI IE EF FL"/>
    </vehicle>
    <vehicle id="47" depart="47.00">
        <route edges="FJ"/>
    </vehicle>
    <vehicle id="48" depart="48.00">
        <route edges="HG"/>
    </vehicle>
    <vehicle id="49" depart="49.00">
        <route edges="MI IE EA AL LA"/>
    </vehicle>
</routes>
