<?xml version="1.0" encoding="UTF-8"?>

<!-- generated on 2023-07-05 22:15:36 by Eclipse SUMO duarouter Version 1.16.0
<configuration xmlns:xsi="http://www.w3.org/2001/XMLSchema-instance" xsi:noNamespaceSchemaLocation="http://sumo.dlr.de/xsd/duarouterConfiguration.xsd">

    <input>
        <net-file value="65-PIN3/src/solver/rs/network_files/net.net.xml"/>
        <route-files value="65-PIN3/src/solver/rs/network_files/nd/trips/nd150output.trips.xml"/>
    </input>

    <output>
        <output-file value="65-PIN3/src/solver/rs/network_files/net.rou.xml"/>
    </output>

    <report>
        <ignore-errors value="true"/>
    </report>

</configuration>
-->

<routes xmlns:xsi="http://www.w3.org/2001/XMLSchema-instance" xsi:noNamespaceSchemaLocation="http://sumo.dlr.de/xsd/routes_file.xsd">
    <vehicle id="0" depart="0.00">
        <route edges="IJ JF FL LA AE"/>
    </vehicle>
    <vehicle id="1" depart="0.00">
        <route edges="EF FE EA"/>
    </vehicle>
    <vehicle id="2" depart="0.00">
        <route edges="JI IM"/>
    </vehicle>
    <vehicle id="3" depart="0.00">
        <route edges="LA AE EF FG GH HB BK"/>
    </vehicle>
    <vehicle id="4" depart="0.00">
        <route edges="GF FE EA AL"/>
    </vehicle>
    <vehicle id="5" depart="0.00">
        <route edges="EA AL LH HB"/>
    </vehicle>
    <vehicle id="6" depart="0.00">
        <route edges="AL LF FE ED DI"/>
    </vehicle>
    <vehicle id="7" depart="0.00">
        <route edges="IJ JF FG GH HG"/>
    </vehicle>
    <vehicle id="8" depart="0.00">
        <route edges="EA AL LF FJ JI ID"/>
    </vehicle>
    <vehicle id="9" depart="0.00">
        <route edges="KC CB BH HL LA AE"/>
    </vehicle>
    <vehicle id="10" depart="0.00">
        <route edges="KC CK KJ JF"/>
    </vehicle>
    <vehicle id="11" depart="0.00">
        <route edges="FE EF FG GK KC CM"/>
    </vehicle>
    <vehicle id="12" depart="0.00">
        <route edges="MC CK KG GF FE"/>
    </vehicle>
    <vehicle id="13" depart="0.00">
        <route edges="BK"/>
    </vehicle>
    <vehicle id="14" depart="0.00">
        <route edges="KJ JI ID"/>
    </vehicle>
    <vehicle id="15" depart="0.00">
        <route edges="KC CK KJ JI"/>
    </vehicle>
    <vehicle id="16" depart="0.00">
        <route edges="HG GF FE EI IM MC"/>
    </vehicle>
    <vehicle id="17" depart="0.00">
        <route edges="FJ JF FG GH HG"/>
    </vehicle>
    <vehicle id="18" depart="0.00">
        <route edges="KG GK KJ JI IE"/>
    </vehicle>
    <vehicle id="19" depart="0.00">
        <route edges="KJ JF FG GH HL"/>
    </vehicle>
    <vehicle id="20" depart="0.00">
        <route edges="JF FE EA AL"/>
    </vehicle>
    <vehicle id="21" depart="0.00">
        <route edges="EA AL LF FE EF"/>
    </vehicle>
    <vehicle id="22" depart="0.00">
        <route edges="BK KJ JI IE EA"/>
    </vehicle>
    <vehicle id="23" depart="0.00">
        <route edges="BK KJ JI IE EF"/>
    </vehicle>
    <vehicle id="24" depart="0.00">
        <route edges="IJ JF FG"/>
    </vehicle>
    <vehicle id="25" depart="0.00">
        <route edges="FJ JF FE ED DI"/>
    </vehicle>
    <vehicle id="26" depart="0.00">
        <route edges="EF FL LH"/>
    </vehicle>
    <vehicle id="27" depart="0.00">
        <route edges="IJ JI IE"/>
    </vehicle>
    <vehicle id="28" depart="0.00">
        <route edges="DE EF FJ JI"/>
    </vehicle>
    <vehicle id="29" depart="0.00">
        <route edges="DE EF FJ"/>
    </vehicle>
    <vehicle id="30" depart="0.00">
        <route edges="MI IJ"/>
    </vehicle>
    <vehicle id="31" depart="0.00">
        <route edges="HL LF FJ JF"/>
    </vehicle>
    <vehicle id="32" depart="0.00">
        <route edges="KJ JK KB"/>
    </vehicle>
    <vehicle id="33" depart="0.00">
        <route edges="EA AL"/>
    </vehicle>
    <vehicle id="34" depart="0.00">
        <route edges="EI IE EF"/>
    </vehicle>
    <vehicle id="35" depart="0.00">
        <route edges="EA AL LH"/>
    </vehicle>
    <vehicle id="36" depart="0.00">
        <route edges="LA AE EI"/>
    </vehicle>
    <vehicle id="37" depart="0.00">
        <route edges="IJ JF FL"/>
    </vehicle>
    <vehicle id="38" depart="0.00">
        <route edges="LF FG GH"/>
    </vehicle>
    <vehicle id="39" depart="0.00">
        <route edges="EF FE ED"/>
    </vehicle>
    <vehicle id="40" depart="0.00">
        <route edges="HL LA AE ED"/>
    </vehicle>
    <vehicle id="41" depart="0.00">
        <route edges="ID DE EA AL LF"/>
    </vehicle>
    <vehicle id="42" depart="0.00">
        <route edges="FL LF FE EA"/>
    </vehicle>
    <vehicle id="43" depart="0.00">
        <route edges="MI IE EA AL LH HB"/>
    </vehicle>
    <vehicle id="44" depart="0.00">
        <route edges="BK KJ JI IE EA AL"/>
    </vehicle>
    <vehicle id="45" depart="0.00">
        <route edges="CK KJ JI IE"/>
    </vehicle>
    <vehicle id="46" depart="0.00">
        <route edges="KC CK KG GF"/>
    </vehicle>
    <vehicle id="47" depart="0.00">
        <route edges="BH HG GF FJ"/>
    </vehicle>
    <vehicle id="48" depart="0.00">
        <route edges="MI IE EF FG GH HG"/>
    </vehicle>
    <vehicle id="49" depart="0.00">
        <route edges="MC CK KJ"/>
    </vehicle>
    <vehicle id="50" depart="0.00">
        <route edges="AE EI IJ JI"/>
    </vehicle>
    <vehicle id="51" depart="0.00">
        <route edges="IM MC CB BH HG"/>
    </vehicle>
    <vehicle id="52" depart="0.00">
        <route edges="EF FJ JI IJ"/>
    </vehicle>
    <vehicle id="53" depart="0.00">
        <route edges="CK KG GF"/>
    </vehicle>
    <vehicle id="54" depart="0.00">
        <route edges="GH HG GF FE EI IM MC"/>
    </vehicle>
    <vehicle id="55" depart="0.00">
        <route edges="LA AE EF"/>
    </vehicle>
    <vehicle id="56" depart="0.00">
        <route edges="HB BC CM MI ID DE"/>
    </vehicle>
    <vehicle id="57" depart="0.00">
        <route edges="LF FL LA"/>
    </vehicle>
    <vehicle id="58" depart="0.00">
        <route edges="EI IJ"/>
    </vehicle>
    <vehicle id="59" depart="0.00">
        <route edges="IE EF FG GK KC CM"/>
    </vehicle>
    <vehicle id="60" depart="0.00">
        <route edges="JK KG GH HG"/>
    </vehicle>
    <vehicle id="61" depart="0.00">
        <route edges="KB BH HG"/>
    </vehicle>
    <vehicle id="62" depart="0.00">
        <route edges="AE EF FE"/>
    </vehicle>
    <vehicle id="63" depart="0.00">
        <route edges="AE EA AL LH"/>
    </vehicle>
    <vehicle id="64" depart="0.00">
        <route edges="LA AE EI IJ JK KG"/>
    </vehicle>
    <vehicle id="65" depart="0.00">
        <route edges="EI IM MC CB BH"/>
    </vehicle>
    <vehicle id="66" depart="0.00">
        <route edges="LA AE EA AL LH"/>
    </vehicle>
    <vehicle id="67" depart="0.00">
        <route edges="BK KG GK"/>
    </vehicle>
    <vehicle id="68" depart="0.00">
        <route edges="BH HB BK KJ JK"/>
    </vehicle>
    <vehicle id="69" depart="0.00">
        <route edges="KB BC CK"/>
    </vehicle>
    <vehicle id="70" depart="0.00">
        <route edges="GK KJ JF FG GH HG"/>
    </vehicle>
    <vehicle id="71" depart="0.00">
        <route edges="EF FL LA"/>
    </vehicle>
    <vehicle id="72" depart="0.00">
        <route edges="GF FE EA"/>
    </vehicle>
    <vehicle id="73" depart="0.00">
        <route edges="HG GF FJ JI"/>
    </vehicle>
    <vehicle id="74" depart="0.00">
        <route edges="DI IE EI"/>
    </vehicle>
    <vehicle id="75" depart="0.00">
        <route edges="MI IJ"/>
    </vehicle>
    <vehicle id="76" depart="0.00">
        <route edges="GF FG GH HB"/>
    </vehicle>
    <vehicle id="77" depart="0.00">
        <route edges="CK KG GF FE EA"/>
    </vehicle>
    <vehicle id="78" depart="0.00">
        <route edges="FE EI ID"/>
    </vehicle>
    <vehicle id="79" depart="0.00">
        <route edges="EA"/>
    </vehicle>
    <vehicle id="80" depart="0.00">
        <route edges="BH HL LA AE EI IE"/>
    </vehicle>
    <vehicle id="81" depart="0.00">
        <route edges="EA AL LF"/>
    </vehicle>
    <vehicle id="82" depart="0.00">
        <route edges="KJ JK KB BH"/>
    </vehicle>
    <vehicle id="83" depart="0.00">
        <route edges="ED DI IM"/>
    </vehicle>
    <vehicle id="84" depart="0.00">
        <route edges="EA AL LH HB BC CM"/>
    </vehicle>
    <vehicle id="85" depart="0.00">
        <route edges="LH HL"/>
    </vehicle>
    <vehicle id="86" depart="0.00">
        <route edges="GH HB BK KB"/>
    </vehicle>
    <vehicle id="87" depart="0.00">
        <route edges="KC CK KG GF FE ED DI"/>
    </vehicle>
    <vehicle id="88" depart="0.00">
        <route edges="BK KG GF"/>
    </vehicle>
    <vehicle id="89" depart="0.00">
        <route edges="GF FG GH"/>
    </vehicle>
    <vehicle id="90" depart="0.00">
        <route edges="JI IM"/>
    </vehicle>
    <vehicle id="91" depart="0.00">
        <route edges="MI IJ JK KB BK"/>
    </vehicle>
    <vehicle id="92" depart="0.00">
        <route edges="FL LF FE"/>
    </vehicle>
    <vehicle id="93" depart="0.00">
        <route edges="KJ JF FE ED"/>
    </vehicle>
    <vehicle id="94" depart="0.00">
        <route edges="DI IE EF FG GH"/>
    </vehicle>
    <vehicle id="95" depart="0.00">
        <route edges="GF FE EF"/>
    </vehicle>
    <vehicle id="96" depart="0.00">
        <route edges="ED DI IE EA AL LH"/>
    </vehicle>
    <vehicle id="97" depart="0.00">
        <route edges="GF FG GK KJ"/>
    </vehicle>
    <vehicle id="98" depart="0.00">
        <route edges="HG GF FE EA AL"/>
    </vehicle>
    <vehicle id="99" depart="0.00">
        <route edges="MI IJ JK KG"/>
    </vehicle>
    <vehicle id="100" depart="0.00">
        <route edges="MC CB BH HL LH"/>
    </vehicle>
    <vehicle id="101" depart="0.00">
        <route edges="KJ JI ID DE"/>
    </vehicle>
    <vehicle id="102" depart="0.00">
        <route edges="GK KJ JI IE EA"/>
    </vehicle>
    <vehicle id="103" depart="0.00">
        <route edges="FL LH HB BH"/>
    </vehicle>
    <vehicle id="104" depart="0.00">
        <route edges="FJ JK KC CM MI"/>
    </vehicle>
    <vehicle id="105" depart="0.00">
        <route edges="EF FJ JK KB"/>
    </vehicle>
    <vehicle id="106" depart="0.00">
        <route edges="GH HG GF"/>
    </vehicle>
    <vehicle id="107" depart="0.00">
        <route edges="MC CM MI"/>
    </vehicle>
    <vehicle id="108" depart="0.00">
        <route edges="HL LF FJ JI"/>
    </vehicle>
    <vehicle id="109" depart="0.00">
        <route edges="CM MI IE EI"/>
    </vehicle>
    <vehicle id="110" depart="0.00">
        <route edges="MC CM MI ID"/>
    </vehicle>
    <vehicle id="111" depart="0.00">
        <route edges="HG GF FJ JK"/>
    </vehicle>
    <vehicle id="112" depart="0.00">
        <route edges="BH HB BC CM MI ID"/>
    </vehicle>
    <vehicle id="113" depart="0.00">
        <route edges="HB BK KJ"/>
    </vehicle>
    <vehicle id="114" depart="0.00">
        <route edges="CM MI IM MC"/>
    </vehicle>
    <vehicle id="115" depart="0.00">
        <route edges="BK KG GF FE ED DI"/>
    </vehicle>
    <vehicle id="116" depart="0.00">
        <route edges="ID DE EI IM"/>
    </vehicle>
    <vehicle id="117" depart="0.00">
        <route edges="EA AL LH HB BC CK"/>
    </vehicle>
    <vehicle id="118" depart="0.00">
        <route edges="LA AE ED"/>
    </vehicle>
    <vehicle id="119" depart="0.00">
        <route edges="ID DE EI IE"/>
    </vehicle>
    <vehicle id="120" depart="0.00">
        <route edges="FL LA AE EI ID"/>
    </vehicle>
    <vehicle id="121" depart="0.00">
        <route edges="HB BH HL LH"/>
    </vehicle>
    <vehicle id="122" depart="0.00">
        <route edges="DI IJ JI"/>
    </vehicle>
    <vehicle id="123" depart="0.00">
        <route edges="ED DI IJ JF FL"/>
    </vehicle>
    <vehicle id="124" depart="0.00">
        <route edges="IM MC CM MI IE EI"/>
    </vehicle>
    <vehicle id="125" depart="0.00">
        <route edges="FE EF FJ JK"/>
    </vehicle>
    <vehicle id="126" depart="0.00">
        <route edges="BH HG GH"/>
    </vehicle>
    <vehicle id="127" depart="0.00">
        <route edges="MI"/>
    </vehicle>
    <vehicle id="128" depart="0.00">
        <route edges="BH HG GF FE EA"/>
    </vehicle>
    <vehicle id="129" depart="0.00">
        <route edges="EF FL LH"/>
    </vehicle>
    <vehicle id="130" depart="0.00">
        <route edges="LA"/>
    </vehicle>
    <vehicle id="131" depart="0.00">
        <route edges="FJ JK KC CM"/>
    </vehicle>
    <vehicle id="132" depart="0.00">
        <route edges="KG GK KJ JF"/>
    </vehicle>
    <vehicle id="133" depart="0.00">
        <route edges="IE EF FG GK KC CM MI"/>
    </vehicle>
    <vehicle id="134" depart="0.00">
        <route edges="IJ JF FL LA AE"/>
    </vehicle>
    <vehicle id="135" depart="0.00">
        <route edges="KG GF FE EI"/>
    </vehicle>
    <vehicle id="136" depart="0.00">
        <route edges="IM MC CB BH HL LH"/>
    </vehicle>
    <vehicle id="137" depart="0.00">
        <route edges="CM MI IM MC CK"/>
    </vehicle>
    <vehicle id="138" depart="0.00">
        <route edges="CK KG GH HL"/>
    </vehicle>
    <vehicle id="139" depart="0.00">
        <route edges="EF FJ JI ID"/>
    </vehicle>
    <vehicle id="140" depart="0.00">
        <route edges="JI IE ED DI"/>
    </vehicle>
    <vehicle id="141" depart="0.00">
        <route edges="IJ JI IE EF"/>
    </vehicle>
    <vehicle id="142" depart="0.00">
        <route edges="GK KJ JF FL LF"/>
    </vehicle>
    <vehicle id="143" depart="0.00">
        <route edges="KJ JK KB BK"/>
    </vehicle>
    <vehicle id="144" depart="0.00">
        <route edges="GF FE EF"/>
    </vehicle>
    <vehicle id="145" depart="0.00">
        <route edges="AE EI IJ JK KB"/>
    </vehicle>
    <vehicle id="146" depart="0.00">
        <route edges="IJ JF FE ED"/>
    </vehicle>
    <vehicle id="147" depart="0.00">
        <route edges="JK KG GH HG"/>
    </vehicle>
    <vehicle id="148" depart="0.00">
        <route edges="GF FL LA AE"/>
    </vehicle>
    <vehicle id="149" depart="0.00">
        <route edges="BH HL LA"/>
    </vehicle>
</routes>
