<?xml version="1.0" encoding="UTF-8"?>

<!-- generated on 2023-07-05 14:05:47 by Eclipse SUMO duarouter Version 1.16.0
<configuration xmlns:xsi="http://www.w3.org/2001/XMLSchema-instance" xsi:noNamespaceSchemaLocation="http://sumo.dlr.de/xsd/duarouterConfiguration.xsd">

    <input>
        <net-file value="65-PIN3/src/solver/rs/network_files/net.net.xml"/>
        <route-files value="65-PIN3/src/solver/rs/network_files/nd/trips/nd200output.trips.xml"/>
    </input>

    <output>
        <output-file value="65-PIN3/src/solver/rs/network_files/net.rou.xml"/>
    </output>

    <report>
        <ignore-errors value="true"/>
    </report>

</configuration>
-->

<routes xmlns:xsi="http://www.w3.org/2001/XMLSchema-instance" xsi:noNamespaceSchemaLocation="http://sumo.dlr.de/xsd/routes_file.xsd">
    <vehicle id="0" depart="0.00">
        <route edges="IJ JI IE EA AL"/>
    </vehicle>
    <vehicle id="1" depart="0.00">
        <route edges="ED DI"/>
    </vehicle>
    <vehicle id="2" depart="0.00">
        <route edges="JK KJ JF"/>
    </vehicle>
    <vehicle id="3" depart="0.00">
        <route edges="LF FJ JK KB BH"/>
    </vehicle>
    <vehicle id="4" depart="0.00">
        <route edges="FL LF FE EA AL"/>
    </vehicle>
    <vehicle id="5" depart="0.00">
        <route edges="DI IM MC CK KH HB"/>
    </vehicle>
    <vehicle id="6" depart="0.00">
        <route edges="AL LF FE EI ID DE"/>
    </vehicle>
    <vehicle id="7" depart="0.00">
        <route edges="IM MC CK KH HG"/>
    </vehicle>
    <vehicle id="8" depart="0.00">
        <route edges="DI ID"/>
    </vehicle>
    <vehicle id="9" depart="0.00">
        <route edges="KC CM MI IE EA AL LA AE"/>
    </vehicle>
    <vehicle id="10" depart="0.00">
        <route edges="KC CM MI IJ JI"/>
    </vehicle>
    <vehicle id="11" depart="0.00">
        <route edges="FE EI IM MC CK"/>
    </vehicle>
    <vehicle id="12" depart="0.00">
        <route edges="MI IE EF FE"/>
    </vehicle>
    <vehicle id="13" depart="0.00">
        <route edges="BH HB BK"/>
    </vehicle>
    <vehicle id="14" depart="0.00">
        <route edges="KJ JI IE"/>
    </vehicle>
    <vehicle id="15" depart="0.00">
        <route edges="KC CM MI IJ JK"/>
    </vehicle>
    <vehicle id="16" depart="0.00">
        <route edges="HG GK KC CM MI"/>
    </vehicle>
    <vehicle id="17" depart="0.00">
        <route edges="FG GH HL"/>
    </vehicle>
    <vehicle id="18" depart="0.00">
        <route edges="KG GK KC CM MI IE"/>
    </vehicle>
    <vehicle id="19" depart="0.00">
        <route edges="LA AE EI ID"/>
    </vehicle>
    <vehicle id="20" depart="0.00">
        <route edges="JI IE EA AL"/>
    </vehicle>
    <vehicle id="21" depart="0.00">
        <route edges="DI IE EF"/>
    </vehicle>
    <vehicle id="22" depart="0.00">
        <route edges="BH HL LA AE ED DI"/>
    </vehicle>
    <vehicle id="23" depart="0.00">
        <route edges="BK KG GF FE ED"/>
    </vehicle>
    <vehicle id="24" depart="0.00">
        <route edges="IJ JF FG"/>
    </vehicle>
    <vehicle id="25" depart="0.00">
        <route edges="FG GK KC CM MI ID DE"/>
    </vehicle>
    <vehicle id="26" depart="0.00">
        <route edges="ED DI IM MC"/>
    </vehicle>
    <vehicle id="27" depart="0.00">
        <route edges="IM MC CK KJ JI IE"/>
    </vehicle>
    <vehicle id="28" depart="0.00">
        <route edges="CM MI IJ JK"/>
    </vehicle>
    <vehicle id="29" depart="0.00">
        <route edges="CK KG GF FG"/>
    </vehicle>
    <vehicle id="30" depart="0.00">
        <route edges="IJ"/>
    </vehicle>
    <vehicle id="31" depart="0.00">
        <route edges="HL LF FJ JF"/>
    </vehicle>
    <vehicle id="32" depart="0.00">
        <route edges="KJ JK KB"/>
    </vehicle>
    <vehicle id="33" depart="0.00">
        <route edges="DI IE EA AL"/>
    </vehicle>
    <vehicle id="34" depart="0.00">
        <route edges="EI IE ED"/>
    </vehicle>
    <vehicle id="35" depart="0.00">
        <route edges="DE EI IM MC"/>
    </vehicle>
    <vehicle id="36" depart="0.00">
        <route edges="LA AE EI"/>
    </vehicle>
    <vehicle id="37" depart="0.00">
        <route edges="IM MC CK KG GF FJ"/>
    </vehicle>
    <vehicle id="38" depart="0.00">
        <route edges="LH HG GH"/>
    </vehicle>
    <vehicle id="39" depart="0.00">
        <route edges="ED DI IE EA"/>
    </vehicle>
    <vehicle id="40" depart="0.00">
        <route edges="HL LA AE ED"/>
    </vehicle>
    <vehicle id="41" depart="0.00">
        <route edges="ID DE EA AL LF"/>
    </vehicle>
    <vehicle id="42" depart="0.00">
        <route edges="FJ JF FE ED DI"/>
    </vehicle>
    <vehicle id="43" depart="0.00">
        <route edges="HB"/>
    </vehicle>
    <vehicle id="44" depart="0.00">
        <route edges="BH HG GF FE EA AL"/>
    </vehicle>
    <vehicle id="45" depart="0.00">
        <route edges="BK KJ JI IJ"/>
    </vehicle>
    <vehicle id="46" depart="0.00">
        <route edges="KC CM MI IE EF FL"/>
    </vehicle>
    <vehicle id="47" depart="0.00">
        <route edges="FJ"/>
    </vehicle>
    <vehicle id="48" depart="0.00">
        <route edges="HG"/>
    </vehicle>
    <vehicle id="49" depart="0.00">
        <route edges="MI IE EA AL LA"/>
    </vehicle>
    <vehicle id="50" depart="0.00">
        <route edges="AE EI IJ JK"/>
    </vehicle>
    <vehicle id="51" depart="0.00">
        <route edges="JF FG GH HG"/>
    </vehicle>
    <vehicle id="52" depart="0.00">
        <route edges="ED DI IJ"/>
    </vehicle>
    <vehicle id="53" depart="0.00">
        <route edges="BK KG GF"/>
    </vehicle>
    <vehicle id="54" depart="0.00">
        <route edges="GH HK KC CM MI"/>
    </vehicle>
    <vehicle id="55" depart="0.00">
        <route edges="LA AE ED"/>
    </vehicle>
    <vehicle id="56" depart="0.00">
        <route edges="HB BK KC CM"/>
    </vehicle>
    <vehicle id="57" depart="0.00">
        <route edges="LH HL LA"/>
    </vehicle>
    <vehicle id="58" depart="0.00">
        <route edges="EF FE EI IJ"/>
    </vehicle>
    <vehicle id="59" depart="0.00">
        <route edges="IE EI IM MC CK"/>
    </vehicle>
    <vehicle id="60" depart="0.00">
        <route edges="KB BH HG"/>
    </vehicle>
    <vehicle id="61" depart="0.00">
        <route edges="KB BH HG"/>
    </vehicle>
    <vehicle id="62" depart="0.00">
        <route edges="AE EI"/>
    </vehicle>
    <vehicle id="63" depart="0.00">
        <route edges="AE EI IM MC"/>
    </vehicle>
    <vehicle id="64" depart="0.00">
        <route edges="LA AE EI IM MC CK KG"/>
    </vehicle>
    <vehicle id="65" depart="0.00">
        <route edges="EF"/>
    </vehicle>
    <vehicle id="66" depart="0.00">
        <route edges="LA AE EI IM MC"/>
    </vehicle>
    <vehicle id="67" depart="0.00">
        <route edges="BH HG GK"/>
    </vehicle>
    <vehicle id="69" depart="0.00">
        <route edges="KB"/>
    </vehicle>
    <vehicle id="70" depart="0.00">
        <route edges="GH HL"/>
    </vehicle>
    <vehicle id="71" depart="0.00">
        <route edges="ED DI IE EA AL LA"/>
    </vehicle>
    <vehicle id="72" depart="0.00">
        <route edges="FL LA AE EI ID DE"/>
    </vehicle>
    <vehicle id="73" depart="0.00">
        <route edges="HG GJ JK"/>
    </vehicle>
    <vehicle id="74" depart="0.00">
        <route edges="DE EI"/>
    </vehicle>
    <vehicle id="75" depart="0.00">
        <route edges="IM"/>
    </vehicle>
    <vehicle id="76" depart="0.00">
        <route edges="GF FG GH HB"/>
    </vehicle>
    <vehicle id="77" depart="0.00">
        <route edges="DI"/>
    </vehicle>
    <vehicle id="78" depart="0.00">
        <route edges="FE EI ID"/>
    </vehicle>
    <vehicle id="79" depart="0.00">
        <route edges="DI"/>
    </vehicle>
    <vehicle id="80" depart="0.00">
        <route edges="IJ"/>
    </vehicle>
    <vehicle id="81" depart="0.00">
        <route edges="DI IE EA AL LH"/>
    </vehicle>
    <vehicle id="82" depart="0.00">
        <route edges="LA"/>
    </vehicle>
    <vehicle id="83" depart="0.00">
        <route edges="DI IJ JF"/>
    </vehicle>
    <vehicle id="84" depart="0.00">
        <route edges="DE"/>
    </vehicle>
    <vehicle id="85" depart="0.00">
        <route edges="MC CK KH HL"/>
    </vehicle>
    <vehicle id="86" depart="0.00">
        <route edges="GH HK KB"/>
    </vehicle>
    <vehicle id="87" depart="0.00">
        <route edges="KC CM"/>
    </vehicle>
    <vehicle id="88" depart="0.00">
        <route edges="BK KG GF"/>
    </vehicle>
    <vehicle id="89" depart="0.00">
        <route edges="FL LF FG GH"/>
    </vehicle>
    <vehicle id="90" depart="0.00">
        <route edges="JK KJ JF"/>
    </vehicle>
    <vehicle id="91" depart="0.00">
        <route edges="BK"/>
    </vehicle>
    <vehicle id="92" depart="0.00">
        <route edges="FJ JF FE"/>
    </vehicle>
    <vehicle id="93" depart="0.00">
        <route edges="LA AE EA"/>
    </vehicle>
    <vehicle id="94" depart="0.00">
        <route edges="CM MI IE EF FG GF"/>
    </vehicle>
    <vehicle id="95" depart="0.00">
        <route edges="FL LF FE ED"/>
    </vehicle>
    <vehicle id="96" depart="0.00">
        <route edges="EA AL LH"/>
    </vehicle>
    <vehicle id="97" depart="0.00">
        <route edges="GF FL LA"/>
    </vehicle>
    <vehicle id="98" depart="0.00">
        <route edges="HL"/>
    </vehicle>
    <vehicle id="99" depart="0.00">
        <route edges="KJ"/>
    </vehicle>
    <vehicle id="100" depart="0.00">
        <route edges="MI IE EA AL LH"/>
    </vehicle>
    <vehicle id="101" depart="0.00">
        <route edges="KJ JI IM MC CK"/>
    </vehicle>
    <vehicle id="102" depart="0.00">
        <route edges="GK KC CM MI ID DE"/>
    </vehicle>
    <vehicle id="103" depart="0.00">
        <route edges="FJ"/>
    </vehicle>
    <vehicle id="104" depart="0.00">
        <route edges="FG"/>
    </vehicle>
    <vehicle id="105" depart="0.00">
        <route edges="ED DI IM MC CK KB"/>
    </vehicle>
    <vehicle id="106" depart="0.00">
        <route edges="GH HG GF FL"/>
    </vehicle>
    <vehicle id="107" depart="0.00">
        <route edges="MI"/>
    </vehicle>
    <vehicle id="108" depart="0.00">
        <route edges="HL LA AE EI IJ JK"/>
    </vehicle>
    <vehicle id="109" depart="0.00">
        <route edges="CK KG GF FE EF"/>
    </vehicle>
    <vehicle id="110" depart="0.00">
        <route edges="MI ID"/>
    </vehicle>
    <vehicle id="111" depart="0.00">
        <route edges="HG"/>
    </vehicle>
    <vehicle id="112" depart="0.00">
        <route edges="ID"/>
    </vehicle>
    <vehicle id="113" depart="0.00">
        <route edges="HB BK KJ"/>
    </vehicle>
    <vehicle id="114" depart="0.00">
        <route edges="CK KC CM MI"/>
    </vehicle>
    <vehicle id="115" depart="0.00">
        <route edges="BH HK KC CM"/>
    </vehicle>
    <vehicle id="116" depart="0.00">
        <route edges="ID DE EF FJ JF"/>
    </vehicle>
    <vehicle id="117" depart="0.00">
        <route edges="DI"/>
    </vehicle>
    <vehicle id="118" depart="0.00">
        <route edges="LF FE EA"/>
    </vehicle>
    <vehicle id="119" depart="0.00">
        <route edges="ID DE EI IJ"/>
    </vehicle>
    <vehicle id="120" depart="0.00">
        <route edges="FL LA AE EI ID"/>
    </vehicle>
    <vehicle id="121" depart="0.00">
        <route edges="HB BK KJ JI IM MC"/>
    </vehicle>
    <vehicle id="122" depart="0.00">
        <route edges="DE EI IJ JK"/>
    </vehicle>
    <vehicle id="123" depart="0.00">
        <route edges="EA AL LF FJ"/>
    </vehicle>
    <vehicle id="124" depart="0.00">
        <route edges="JF FE EF"/>
    </vehicle>
    <vehicle id="125" depart="0.00">
        <route edges="EI"/>
    </vehicle>
    <vehicle id="126" depart="0.00">
        <route edges="BH HG GH"/>
    </vehicle>
    <vehicle id="128" depart="0.00">
        <route edges="BH HL LA AE EI ID DE"/>
    </vehicle>
    <vehicle id="129" depart="0.00">
        <route edges="ED DI IM MC"/>
    </vehicle>
    <vehicle id="130" depart="0.00">
        <route edges="LA"/>
    </vehicle>
    <vehicle id="131" depart="0.00">
        <route edges="FG GJ JI IM MC CK"/>
    </vehicle>
    <vehicle id="132" depart="0.00">
        <route edges="KJ JI"/>
    </vehicle>
    <vehicle id="133" depart="0.00">
        <route edges="IE"/>
    </vehicle>
    <vehicle id="134" depart="0.00">
        <route edges="IM MC CK KH HL LA AE"/>
    </vehicle>
    <vehicle id="135" depart="0.00">
        <route edges="KG GF FE EF"/>
    </vehicle>
    <vehicle id="136" depart="0.00">
        <route edges="IM MC"/>
    </vehicle>
    <vehicle id="137" depart="0.00">
        <route edges="BK"/>
    </vehicle>
    <vehicle id="138" depart="0.00">
        <route edges="BK KB BH HL"/>
    </vehicle>
    <vehicle id="139" depart="0.00">
        <route edges="ED DI IE"/>
    </vehicle>
    <vehicle id="140" depart="0.00">
        <route edges="JK KJ JI ID DE"/>
    </vehicle>
    <vehicle id="141" depart="0.00">
        <route edges="IJ JF FE ED"/>
    </vehicle>
    <vehicle id="142" depart="0.00">
        <route edges="GK KJ JF FL LH"/>
    </vehicle>
    <vehicle id="143" depart="0.00">
        <route edges="KJ JK KB BH"/>
    </vehicle>
    <vehicle id="144" depart="0.00">
        <route edges="FL LF FE ED"/>
    </vehicle>
    <vehicle id="145" depart="0.00">
        <route edges="AE EI IJ JK KB"/>
    </vehicle>
    <vehicle id="146" depart="0.00">
        <route edges="IJ JF FE ED"/>
    </vehicle>
    <vehicle id="147" depart="0.00">
        <route edges="HL"/>
    </vehicle>
    <vehicle id="148" depart="0.00">
        <route edges="FL LA AE"/>
    </vehicle>
    <vehicle id="149" depart="0.00">
        <route edges="BH HL LF"/>
    </vehicle>
    <vehicle id="150" depart="0.00">
        <route edges="LF FG GH HG"/>
    </vehicle>
    <vehicle id="151" depart="0.00">
        <route edges="KJ JI ID"/>
    </vehicle>
    <vehicle id="152" depart="0.00">
        <route edges="CK"/>
    </vehicle>
    <vehicle id="153" depart="0.00">
        <route edges="EF FL LF"/>
    </vehicle>
    <vehicle id="154" depart="0.00">
        <route edges="KC CM MI IE EA AL LA"/>
    </vehicle>
    <vehicle id="155" depart="0.00">
        <route edges="LF FE EI ID DE"/>
    </vehicle>
    <vehicle id="156" depart="0.00">
        <route edges="EA AL LH HB BK"/>
    </vehicle>
    <vehicle id="157" depart="0.00">
        <route edges="KB BH HL LF"/>
    </vehicle>
    <vehicle id="158" depart="0.00">
        <route edges="FL LA AE EI IJ"/>
    </vehicle>
    <vehicle id="159" depart="0.00">
        <route edges="CK KJ JI IM MC"/>
    </vehicle>
    <vehicle id="160" depart="0.00">
        <route edges="LA"/>
    </vehicle>
    <vehicle id="161" depart="0.00">
        <route edges="KG GF FL LF"/>
    </vehicle>
    <vehicle id="162" depart="0.00">
        <route edges="AL LF FJ JK"/>
    </vehicle>
    <vehicle id="163" depart="0.00">
        <route edges="EI IM MC"/>
    </vehicle>
    <vehicle id="164" depart="0.00">
        <route edges="KC CM MI IE EA AL LA"/>
    </vehicle>
    <vehicle id="165" depart="0.00">
        <route edges="KG GF FE ED"/>
    </vehicle>
    <vehicle id="166" depart="0.00">
        <route edges="KC CM MI IE EA AL LH HB BK"/>
    </vehicle>
    <vehicle id="167" depart="0.00">
        <route edges="LA"/>
    </vehicle>
    <vehicle id="168" depart="0.00">
        <route edges="DI IM MC CK KG"/>
    </vehicle>
    <vehicle id="169" depart="0.00">
        <route edges="GH HG GF FE EF"/>
    </vehicle>
    <vehicle id="170" depart="0.00">
        <route edges="KC CM MI IE ED DI"/>
    </vehicle>
    <vehicle id="171" depart="0.00">
        <route edges="AE EI ID DE"/>
    </vehicle>
    <vehicle id="172" depart="0.00">
        <route edges="EI IE EA AL LA"/>
    </vehicle>
    <vehicle id="173" depart="0.00">
        <route edges="MI IE ED"/>
    </vehicle>
    <vehicle id="174" depart="0.00">
        <route edges="IJ JF FJ"/>
    </vehicle>
    <vehicle id="175" depart="0.00">
        <route edges="HG"/>
    </vehicle>
    <vehicle id="176" depart="0.00">
        <route edges="MC CK KH HB BK"/>
    </vehicle>
    <vehicle id="177" depart="0.00">
        <route edges="MI IJ JK KC CM"/>
    </vehicle>
    <vehicle id="178" depart="0.00">
        <route edges="MI IE ED"/>
    </vehicle>
    <vehicle id="179" depart="0.00">
        <route edges="BK KG GF"/>
    </vehicle>
    <vehicle id="180" depart="0.00">
        <route edges="JK KG GF FE EI"/>
    </vehicle>
    <vehicle id="181" depart="0.00">
        <route edges="IE EA AL LH HB"/>
    </vehicle>
    <vehicle id="182" depart="0.00">
        <route edges="FJ JI ID"/>
    </vehicle>
    <vehicle id="183" depart="0.00">
        <route edges="EA AL LF FJ JI"/>
    </vehicle>
    <vehicle id="184" depart="0.00">
        <route edges="AE EA AL LH"/>
    </vehicle>
    <vehicle id="185" depart="0.00">
        <route edges="HG GJ JK"/>
    </vehicle>
    <vehicle id="186" depart="0.00">
        <route edges="JF"/>
    </vehicle>
    <vehicle id="187" depart="0.00">
        <route edges="FG"/>
    </vehicle>
    <vehicle id="188" depart="0.00">
        <route edges="IM MC CK KG GF FE EI"/>
    </vehicle>
    <vehicle id="189" depart="0.00">
        <route edges="EI IJ JK KJ"/>
    </vehicle>
    <vehicle id="190" depart="0.00">
        <route edges="JK KJ JI IE EF"/>
    </vehicle>
    <vehicle id="191" depart="0.00">
        <route edges="EF FL"/>
    </vehicle>
    <vehicle id="192" depart="0.00">
        <route edges="FJ JI IE EF"/>
    </vehicle>
    <vehicle id="193" depart="0.00">
        <route edges="FL"/>
    </vehicle>
    <vehicle id="194" depart="0.00">
        <route edges="MC CK KJ JF"/>
    </vehicle>
    <vehicle id="195" depart="0.00">
        <route edges="LF FE EI IE"/>
    </vehicle>
    <vehicle id="196" depart="0.00">
        <route edges="EF FG GH HL"/>
    </vehicle>
    <vehicle id="197" depart="0.00">
        <route edges="AE EF"/>
    </vehicle>
    <vehicle id="198" depart="0.00">
        <route edges="GF FE EI ID"/>
    </vehicle>
    <vehicle id="199" depart="0.00">
        <route edges="IM MC CK KG GH"/>
    </vehicle>
</routes>
