<?xml version="1.0" encoding="UTF-8"?>

<!-- generated on 2023-06-27 09:46:47 by Eclipse SUMO duarouter Version 1.16.0
<configuration xmlns:xsi="http://www.w3.org/2001/XMLSchema-instance" xsi:noNamespaceSchemaLocation="http://sumo.dlr.de/xsd/duarouterConfiguration.xsd">

    <input>
        <net-file value="65-PIN3/src/solver/rs/network_files/net.net.xml"/>
        <route-files value="65-PIN3/src/solver/rs/network_files/ow/trips/ow50output.trips.xml"/>
    </input>

    <output>
        <output-file value="65-PIN3/src/solver/rs/network_files/net.rou.xml"/>
    </output>

    <report>
        <ignore-errors value="true"/>
    </report>

</configuration>
-->

<routes xmlns:xsi="http://www.w3.org/2001/XMLSchema-instance" xsi:noNamespaceSchemaLocation="http://sumo.dlr.de/xsd/routes_file.xsd">
    <vehicle id="0" depart="0.00">
        <route edges="HG GF FC CA AC"/>
    </vehicle>
    <vehicle id="1" depart="1.00">
        <route edges="DE ED DA"/>
    </vehicle>
    <vehicle id="2" depart="2.00">
        <route edges="JG GJ JL LI IF"/>
    </vehicle>
    <vehicle id="3" depart="3.00">
        <route edges="KJ JM MK KH HE EB BD"/>
    </vehicle>
    <vehicle id="4" depart="4.00">
        <route edges="FG GC CA AC"/>
    </vehicle>
    <vehicle id="5" depart="5.00">
        <route edges="DA AC CG GF"/>
    </vehicle>
    <vehicle id="6" depart="6.00">
        <route edges="AC CG"/>
    </vehicle>
    <vehicle id="7" depart="7.00">
        <route edges="HK KH HG GJ"/>
    </vehicle>
    <vehicle id="8" depart="8.00">
        <route edges="DA AD DH HD"/>
    </vehicle>
    <vehicle id="9" depart="9.00">
        <route edges="JL LI IF FC CA AB"/>
    </vehicle>
    <vehicle id="10" depart="10.00">
        <route edges="JL LI IJ"/>
    </vehicle>
    <vehicle id="11" depart="11.00">
        <route edges="EB BA AC CD"/>
    </vehicle>
    <vehicle id="12" depart="12.00">
        <route edges="LJ JM MK KH HE EB"/>
    </vehicle>
    <vehicle id="13" depart="13.00">
        <route edges="BD"/>
    </vehicle>
    <vehicle id="14" depart="14.00">
        <route edges="KG GH HD"/>
    </vehicle>
    <vehicle id="15" depart="15.00">
        <route edges="JL LI IJ JG"/>
    </vehicle>
    <vehicle id="16" depart="16.00">
        <route edges="GH HK KM MJ"/>
    </vehicle>
    <vehicle id="17" depart="17.00">
        <route edges="EH HG GJ"/>
    </vehicle>
    <vehicle id="18" depart="18.00">
        <route edges="JM MK KH HE"/>
    </vehicle>
    <vehicle id="19" depart="19.00">
        <route edges="KH HG GK"/>
    </vehicle>
    <vehicle id="20" depart="20.00">
        <route edges="IJ JG GD DA AD"/>
    </vehicle>
    <vehicle id="21" depart="21.00">
        <route edges="DA AC CD DE"/>
    </vehicle>
    <vehicle id="22" depart="22.00">
        <route edges="BA AC CD DB"/>
    </vehicle>
    <vehicle id="23" depart="23.00">
        <route edges="BD DE"/>
    </vehicle>
    <vehicle id="24" depart="24.00">
        <route edges="HG GH HE ED"/>
    </vehicle>
    <vehicle id="25" depart="25.00">
        <route edges="ED DA"/>
    </vehicle>
    <vehicle id="26" depart="26.00">
        <route edges="DC CG GJ JL LI"/>
    </vehicle>
    <vehicle id="27" depart="27.00">
        <route edges="HK KH HE"/>
    </vehicle>
    <vehicle id="28" depart="28.00">
        <route edges="CF FI IL"/>
    </vehicle>
    <vehicle id="29" depart="29.00">
        <route edges="CD DE EH"/>
    </vehicle>
    <vehicle id="30" depart="30.00">
        <route edges="MK KH HG"/>
    </vehicle>
    <vehicle id="31" depart="31.00">
        <route edges="GJ JL LI IF"/>
    </vehicle>
    <vehicle id="32" depart="32.00">
        <route edges="KG GJ JK"/>
    </vehicle>
    <vehicle id="33" depart="33.00">
        <route edges="DA AC"/>
    </vehicle>
    <vehicle id="34" depart="34.00">
        <route edges="DH HD DC"/>
    </vehicle>
    <vehicle id="35" depart="35.00">
        <route edges="DA AC CF FI IL LJ"/>
    </vehicle>
    <vehicle id="36" depart="36.00">
        <route edges="KJ JG GD DH"/>
    </vehicle>
    <vehicle id="37" depart="37.00">
        <route edges="HK KH HE EH"/>
    </vehicle>
    <vehicle id="38" depart="38.00">
        <route edges="KM MJ JG GC"/>
    </vehicle>
    <vehicle id="39" depart="39.00">
        <route edges="DC CD DB"/>
    </vehicle>
    <vehicle id="40" depart="40.00">
        <route edges="GJ JG GD DC"/>
    </vehicle>
    <vehicle id="41" depart="41.00">
        <route edges="HD DH HK KM"/>
    </vehicle>
    <vehicle id="42" depart="42.00">
        <route edges="FC CD DA"/>
    </vehicle>
    <vehicle id="43" depart="43.00">
        <route edges="MK KH HG GF"/>
    </vehicle>
    <vehicle id="44" depart="44.00">
        <route edges="BD DA AD"/>
    </vehicle>
    <vehicle id="45" depart="45.00">
        <route edges="BE EH HG"/>
    </vehicle>
    <vehicle id="46" depart="46.00">
        <route edges="JL LI IF FG"/>
    </vehicle>
    <vehicle id="47" depart="47.00">
        <route edges="BA AB BE EH"/>
    </vehicle>
    <vehicle id="48" depart="48.00">
        <route edges="MK KG GH"/>
    </vehicle>
    <vehicle id="49" depart="49.00">
        <route edges="MJ JM MK KH"/>
    </vehicle>
</routes>
