<nodes>
	<node id="A" x="0.0" y="0.0" />
	<node id="C" x="100" y="0.0" />
	<node id="F" x="200.0" y="0.0" />
	<node id="I" x="300.0" y="0.0" />
	<node id="L" x="400.0" y="0.0" />
	<node id="B" x="0.0" y="-100.0" />
	<node id="D" x="100.0" y="-100.0" />
	<node id="G" x="200.0" y="-100.0" />
	<node id="J" x="300.0" y="-100.0" />
	<node id="E" x="100.0" y="-200.0" />
	<node id="H" x="200.0" y="-200.0" />
	<node id="K" x="300.0" y="-200.0" />
	<node id="M" x="400.0" y="-200.0" />
</nodes>