<nodes>
	<node id="A" x="0.00" y="0.00" />
	<node id="B" x="300.00" y="-200.00" />
	<node id="C" x="200.00" y="-300.00" />
	<node id="D" x="-100.00" y="-100.00" />
	<node id="E" x="0.00" y="-100.00" />
	<node id="F" x="100.00" y="-100.00" />
	<node id="G" x="200.00" y="-100.00" />
	<node id="H" x="300.00" y="-100.00" />
	<node id="I" x="0.00" y="-200.00" />
	<node id="J" x="100.00" y="-200.00" />
	<node id="K" x="200.00" y="-200.00" />
	<node id="L" x="100.00" y="0.00" />
	<node id="M" x="100.00" y="-300.00" />
</nodes>