<?xml version="1.0" encoding="UTF-8"?>

<!-- generated on 2023-06-13 11:51:25.106337 by randomTrips.py v1_16_0+0000-94ec4c6cd72
<configuration>
    <end value="250"/>
    <net-file value="./network_files/net.net.xml"/>
    <output-trip-file value="./network_files/nd/trips/nd250output.trips.xml"/>
</configuration>
-->

<routes xmlns:xsi="http://www.w3.org/2001/XMLSchema-instance" xsi:noNamespaceSchemaLocation="http://sumo.dlr.de/xsd/routes_file.xsd">
    <trip id="0" depart="0.00" from="IJ" to="AE"/>
    <trip id="1" depart="0.00" from="EF" to="EA"/>
    <trip id="2" depart="0.00" from="JI" to="IM"/>
    <trip id="3" depart="0.00" from="LA" to="BK"/>
    <trip id="4" depart="0.00" from="GF" to="AL"/>
    <trip id="5" depart="0.00" from="EA" to="HB"/>
    <trip id="6" depart="0.00" from="AL" to="DI"/>
    <trip id="7" depart="0.00" from="IJ" to="HG"/>
    <trip id="8" depart="0.00" from="EA" to="ID"/>
    <trip id="9" depart="0.00" from="KC" to="AE"/>
    <trip id="10" depart="0.00" from="KC" to="JF"/>
    <trip id="11" depart="0.00" from="FE" to="CM"/>
    <trip id="12" depart="0.00" from="MC" to="FE"/>
    <trip id="13" depart="0.00" from="BK" to="BK"/>
    <trip id="14" depart="0.00" from="KJ" to="ID"/>
    <trip id="15" depart="0.00" from="KC" to="JI"/>
    <trip id="16" depart="0.00" from="HG" to="MC"/>
    <trip id="17" depart="0.00" from="FJ" to="HG"/>
    <trip id="18" depart="0.00" from="KG" to="IE"/>
    <trip id="19" depart="0.00" from="KJ" to="HL"/>
    <trip id="20" depart="0.00" from="JF" to="AL"/>
    <trip id="21" depart="0.00" from="EA" to="EF"/>
    <trip id="22" depart="0.00" from="BK" to="EA"/>
    <trip id="23" depart="0.00" from="BK" to="EF"/>
    <trip id="24" depart="0.00" from="IJ" to="FG"/>
    <trip id="25" depart="0.00" from="FJ" to="DI"/>
    <trip id="26" depart="0.00" from="EF" to="LH"/>
    <trip id="27" depart="0.00" from="IJ" to="IE"/>
    <trip id="28" depart="0.00" from="DE" to="JI"/>
    <trip id="29" depart="0.00" from="DE" to="FJ"/>
    <trip id="30" depart="0.00" from="MI" to="IJ"/>
    <trip id="31" depart="0.00" from="HL" to="JF"/>
    <trip id="32" depart="0.00" from="KJ" to="KB"/>
    <trip id="33" depart="0.00" from="EA" to="AL"/>
    <trip id="34" depart="0.00" from="EI" to="EF"/>
    <trip id="35" depart="0.00" from="EA" to="LH"/>
    <trip id="36" depart="0.00" from="LA" to="EI"/>
    <trip id="37" depart="0.00" from="IJ" to="FL"/>
    <trip id="38" depart="0.00" from="LF" to="GH"/>
    <trip id="39" depart="0.00" from="EF" to="ED"/>
    <trip id="40" depart="0.00" from="HL" to="ED"/>
    <trip id="41" depart="0.00" from="ID" to="LF"/>
    <trip id="42" depart="0.00" from="FL" to="EA"/>
    <trip id="43" depart="0.00" from="MI" to="HB"/>
    <trip id="44" depart="0.00" from="BK" to="AL"/>
    <trip id="45" depart="0.00" from="CK" to="IE"/>
    <trip id="46" depart="0.00" from="KC" to="GF"/>
    <trip id="47" depart="0.00" from="BH" to="FJ"/>
    <trip id="48" depart="0.00" from="MI" to="HG"/>
    <trip id="49" depart="0.00" from="MC" to="KJ"/>
    <trip id="50" depart="0.00" from="AE" to="JI"/>
    <trip id="51" depart="0.00" from="IM" to="HG"/>
    <trip id="52" depart="0.00" from="EF" to="IJ"/>
    <trip id="53" depart="0.00" from="CK" to="GF"/>
    <trip id="54" depart="0.00" from="GH" to="MC"/>
    <trip id="55" depart="0.00" from="LA" to="EF"/>
    <trip id="56" depart="0.00" from="HB" to="DE"/>
    <trip id="57" depart="0.00" from="LF" to="LA"/>
    <trip id="58" depart="0.00" from="EI" to="IJ"/>
    <trip id="59" depart="0.00" from="IE" to="CM"/>
    <trip id="60" depart="0.00" from="JK" to="HG"/>
    <trip id="61" depart="0.00" from="KB" to="HG"/>
    <trip id="62" depart="0.00" from="AE" to="FE"/>
    <trip id="63" depart="0.00" from="AE" to="LH"/>
    <trip id="64" depart="0.00" from="LA" to="KG"/>
    <trip id="65" depart="0.00" from="EI" to="BH"/>
    <trip id="66" depart="0.00" from="LA" to="LH"/>
    <trip id="67" depart="0.00" from="BK" to="GK"/>
    <trip id="68" depart="0.00" from="BH" to="JK"/>
    <trip id="69" depart="0.00" from="KB" to="CK"/>
    <trip id="70" depart="0.00" from="GK" to="HG"/>
    <trip id="71" depart="0.00" from="EF" to="LA"/>
    <trip id="72" depart="0.00" from="GF" to="EA"/>
    <trip id="73" depart="0.00" from="HG" to="JI"/>
    <trip id="74" depart="0.00" from="DI" to="EI"/>
    <trip id="75" depart="0.00" from="MI" to="IJ"/>
    <trip id="76" depart="0.00" from="GF" to="HB"/>
    <trip id="77" depart="0.00" from="CK" to="EA"/>
    <trip id="78" depart="0.00" from="FE" to="ID"/>
    <trip id="79" depart="0.00" from="EA" to="EA"/>
    <trip id="80" depart="0.00" from="BH" to="IE"/>
    <trip id="81" depart="0.00" from="EA" to="LF"/>
    <trip id="82" depart="0.00" from="KJ" to="BH"/>
    <trip id="83" depart="0.00" from="ED" to="IM"/>
    <trip id="84" depart="0.00" from="EA" to="CM"/>
    <trip id="85" depart="0.00" from="LH" to="HL"/>
    <trip id="86" depart="0.00" from="GH" to="KB"/>
    <trip id="87" depart="0.00" from="KC" to="DI"/>
    <trip id="88" depart="0.00" from="BK" to="GF"/>
    <trip id="89" depart="0.00" from="GF" to="GH"/>
    <trip id="90" depart="0.00" from="JI" to="IM"/>
    <trip id="91" depart="0.00" from="MI" to="BK"/>
    <trip id="92" depart="0.00" from="FL" to="FE"/>
    <trip id="93" depart="0.00" from="KJ" to="ED"/>
    <trip id="94" depart="0.00" from="DI" to="GH"/>
    <trip id="95" depart="0.00" from="GF" to="EF"/>
    <trip id="96" depart="0.00" from="ED" to="LH"/>
    <trip id="97" depart="0.00" from="GF" to="KJ"/>
    <trip id="98" depart="0.00" from="HG" to="AL"/>
    <trip id="99" depart="0.00" from="MI" to="KG"/>
    <trip id="100" depart="0.00" from="MC" to="LH"/>
    <trip id="101" depart="0.00" from="KJ" to="DE"/>
    <trip id="102" depart="0.00" from="GK" to="EA"/>
    <trip id="103" depart="0.00" from="FL" to="BH"/>
    <trip id="104" depart="0.00" from="FJ" to="MI"/>
    <trip id="105" depart="0.00" from="EF" to="KB"/>
    <trip id="106" depart="0.00" from="GH" to="GF"/>
    <trip id="107" depart="0.00" from="MC" to="MI"/>
    <trip id="108" depart="0.00" from="HL" to="JI"/>
    <trip id="109" depart="0.00" from="CM" to="EI"/>
    <trip id="110" depart="0.00" from="MC" to="ID"/>
    <trip id="111" depart="0.00" from="HG" to="JK"/>
    <trip id="112" depart="0.00" from="BH" to="ID"/>
    <trip id="113" depart="0.00" from="HB" to="KJ"/>
    <trip id="114" depart="0.00" from="CM" to="MC"/>
    <trip id="115" depart="0.00" from="BK" to="DI"/>
    <trip id="116" depart="0.00" from="ID" to="IM"/>
    <trip id="117" depart="0.00" from="EA" to="CK"/>
    <trip id="118" depart="0.00" from="LA" to="ED"/>
    <trip id="119" depart="0.00" from="ID" to="IE"/>
    <trip id="120" depart="0.00" from="FL" to="ID"/>
    <trip id="121" depart="0.00" from="HB" to="LH"/>
    <trip id="122" depart="0.00" from="DI" to="JI"/>
    <trip id="123" depart="0.00" from="ED" to="FL"/>
    <trip id="124" depart="0.00" from="IM" to="EI"/>
    <trip id="125" depart="0.00" from="FE" to="JK"/>
    <trip id="126" depart="0.00" from="BH" to="GH"/>
    <trip id="127" depart="0.00" from="MI" to="MI"/>
    <trip id="128" depart="0.00" from="BH" to="EA"/>
    <trip id="129" depart="0.00" from="EF" to="LH"/>
    <trip id="130" depart="0.00" from="LA" to="LA"/>
    <trip id="131" depart="0.00" from="FJ" to="CM"/>
    <trip id="132" depart="0.00" from="KG" to="JF"/>
    <trip id="133" depart="0.00" from="IE" to="MI"/>
    <trip id="134" depart="0.00" from="IJ" to="AE"/>
    <trip id="135" depart="0.00" from="KG" to="EI"/>
    <trip id="136" depart="0.00" from="IM" to="LH"/>
    <trip id="137" depart="0.00" from="CM" to="CK"/>
    <trip id="138" depart="0.00" from="CK" to="HL"/>
    <trip id="139" depart="0.00" from="EF" to="ID"/>
    <trip id="140" depart="0.00" from="JI" to="DI"/>
    <trip id="141" depart="0.00" from="IJ" to="EF"/>
    <trip id="142" depart="0.00" from="GK" to="LF"/>
    <trip id="143" depart="0.00" from="KJ" to="BK"/>
    <trip id="144" depart="0.00" from="GF" to="EF"/>
    <trip id="145" depart="0.00" from="AE" to="KB"/>
    <trip id="146" depart="0.00" from="IJ" to="ED"/>
    <trip id="147" depart="0.00" from="JK" to="HG"/>
    <trip id="148" depart="0.00" from="GF" to="AE"/>
    <trip id="149" depart="0.00" from="BH" to="LA"/>
    <trip id="150" depart="0.00" from="LF" to="HG"/>
    <trip id="151" depart="0.00" from="KG" to="ID"/>
    <trip id="152" depart="0.00" from="CM" to="CK"/>
    <trip id="153" depart="0.00" from="EI" to="LF"/>
    <trip id="154" depart="0.00" from="KC" to="KJ"/>
    <trip id="155" depart="0.00" from="LF" to="DI"/>
    <trip id="156" depart="0.00" from="ED" to="BK"/>
    <trip id="157" depart="0.00" from="KB" to="LA"/>
    <trip id="158" depart="0.00" from="FL" to="IE"/>
    <trip id="159" depart="0.00" from="CM" to="LH"/>
    <trip id="160" depart="0.00" from="KJ" to="MI"/>
    <trip id="161" depart="0.00" from="KC" to="LA"/>
    <trip id="162" depart="0.00" from="AE" to="JI"/>
    <trip id="163" depart="0.00" from="FE" to="LH"/>
    <trip id="164" depart="0.00" from="KC" to="KJ"/>
    <trip id="165" depart="0.00" from="KC" to="EF"/>
    <trip id="166" depart="0.00" from="KB" to="CK"/>
    <trip id="167" depart="0.00" from="LA" to="KJ"/>
    <trip id="168" depart="0.00" from="EA" to="KG"/>
    <trip id="169" depart="0.00" from="GH" to="EI"/>
    <trip id="170" depart="0.00" from="KC" to="EA"/>
    <trip id="171" depart="0.00" from="AE" to="DI"/>
    <trip id="172" depart="0.00" from="FE" to="KJ"/>
    <trip id="173" depart="0.00" from="MC" to="EF"/>
    <trip id="174" depart="0.00" from="IJ" to="FL"/>
    <trip id="175" depart="0.00" from="MI" to="HG"/>
    <trip id="176" depart="0.00" from="LH" to="CK"/>
    <trip id="177" depart="0.00" from="MC" to="DE"/>
    <trip id="178" depart="0.00" from="MC" to="EF"/>
    <trip id="179" depart="0.00" from="CK" to="GF"/>
    <trip id="180" depart="0.00" from="JI" to="EI"/>
    <trip id="181" depart="0.00" from="IE" to="HB"/>
    <trip id="182" depart="0.00" from="FJ" to="HL"/>
    <trip id="183" depart="0.00" from="ED" to="JF"/>
    <trip id="184" depart="0.00" from="AE" to="LH"/>
    <trip id="185" depart="0.00" from="HG" to="JI"/>
    <trip id="186" depart="0.00" from="JK" to="IM"/>
    <trip id="187" depart="0.00" from="FG" to="BH"/>
    <trip id="188" depart="0.00" from="IM" to="FE"/>
    <trip id="189" depart="0.00" from="EI" to="KJ"/>
    <trip id="190" depart="0.00" from="JI" to="EI"/>
    <trip id="191" depart="0.00" from="EI" to="FL"/>
    <trip id="192" depart="0.00" from="FL" to="EI"/>
    <trip id="193" depart="0.00" from="CK" to="FL"/>
    <trip id="194" depart="0.00" from="LH" to="IM"/>
    <trip id="195" depart="0.00" from="LF" to="IE"/>
    <trip id="196" depart="0.00" from="EI" to="HG"/>
    <trip id="197" depart="0.00" from="AE" to="EF"/>
    <trip id="198" depart="0.00" from="GF" to="ID"/>
    <trip id="199" depart="0.00" from="IJ" to="GH"/>
    <trip id="200" depart="0.00" from="GF" to="EA"/>
    <trip id="201" depart="0.00" from="GH" to="LF"/>
    <trip id="202" depart="0.00" from="KC" to="DE"/>
    <trip id="203" depart="0.00" from="BK" to="HB"/>
    <trip id="204" depart="0.00" from="IJ" to="FE"/>
    <trip id="205" depart="0.00" from="KG" to="JK"/>
    <trip id="206" depart="0.00" from="IM" to="EA"/>
    <trip id="207" depart="0.00" from="DI" to="AE"/>
    <trip id="208" depart="0.00" from="ED" to="GK"/>
    <trip id="209" depart="0.00" from="KJ" to="BH"/>
    <trip id="210" depart="0.00" from="FL" to="IE"/>
    <trip id="211" depart="0.00" from="DI" to="JF"/>
    <trip id="212" depart="0.00" from="GK" to="ED"/>
    <trip id="213" depart="0.00" from="IJ" to="AE"/>
    <trip id="214" depart="0.00" from="JK" to="KB"/>
    <trip id="215" depart="0.00" from="CK" to="GF"/>
    <trip id="216" depart="0.00" from="DE" to="MC"/>
    <trip id="217" depart="0.00" from="HB" to="AL"/>
    <trip id="218" depart="0.00" from="ED" to="KJ"/>
    <trip id="219" depart="0.00" from="GH" to="KC"/>
    <trip id="220" depart="0.00" from="IM" to="MI"/>
    <trip id="221" depart="0.00" from="ID" to="MC"/>
    <trip id="222" depart="0.00" from="LA" to="IE"/>
    <trip id="223" depart="0.00" from="JI" to="HB"/>
    <trip id="224" depart="0.00" from="KG" to="HG"/>
    <trip id="225" depart="0.00" from="LF" to="JK"/>
    <trip id="226" depart="0.00" from="GK" to="ED"/>
    <trip id="227" depart="0.00" from="ED" to="IJ"/>
    <trip id="228" depart="0.00" from="KB" to="HB"/>
    <trip id="229" depart="0.00" from="IE" to="EF"/>
    <trip id="230" depart="0.00" from="BH" to="EF"/>
    <trip id="231" depart="0.00" from="EF" to="FE"/>
    <trip id="232" depart="0.00" from="HG" to="CM"/>
    <trip id="233" depart="0.00" from="EA" to="JF"/>
    <trip id="234" depart="0.00" from="JF" to="BH"/>
    <trip id="235" depart="0.00" from="FL" to="HG"/>
    <trip id="236" depart="0.00" from="FL" to="DI"/>
    <trip id="237" depart="0.00" from="FL" to="LF"/>
    <trip id="238" depart="0.00" from="ID" to="JF"/>
    <trip id="239" depart="0.00" from="KJ" to="KB"/>
    <trip id="240" depart="0.00" from="FJ" to="AE"/>
    <trip id="241" depart="0.00" from="FG" to="JK"/>
    <trip id="242" depart="0.00" from="KJ" to="MC"/>
    <trip id="243" depart="0.00" from="FL" to="JK"/>
    <trip id="244" depart="0.00" from="HG" to="ID"/>
    <trip id="245" depart="0.00" from="EA" to="EA"/>
    <trip id="246" depart="0.00" from="GF" to="AL"/>
    <trip id="247" depart="0.00" from="FE" to="IM"/>
    <trip id="248" depart="0.00" from="FL" to="DE"/>
    <trip id="249" depart="0.00" from="GH" to="CK"/>
</routes>
