<?xml version="1.0" encoding="UTF-8"?>

<!-- generated on 2023-06-13 11:34:04.626744 by randomTrips.py v1_16_0+0000-94ec4c6cd72
<configuration>
    <end value="100"/>
    <net-file value="./network_files/net.net.xml"/>
    <output-trip-file value="./network_files/ow/trips/ow100output.trips.xml"/>
</configuration>
-->

<routes xmlns:xsi="http://www.w3.org/2001/XMLSchema-instance" xsi:noNamespaceSchemaLocation="http://sumo.dlr.de/xsd/routes_file.xsd">
    <trip id="0" depart="0.00" from="HG" to="AC"/>
    <trip id="1" depart="0.00" from="DE" to="DA"/>
    <trip id="2" depart="0.00" from="JG" to="IF"/>
    <trip id="3" depart="0.00" from="KJ" to="BD"/>
    <trip id="4" depart="0.00" from="FG" to="AC"/>
    <trip id="5" depart="0.00" from="DA" to="GF"/>
    <trip id="6" depart="0.00" from="AC" to="CG"/>
    <trip id="7" depart="0.00" from="HK" to="GJ"/>
    <trip id="8" depart="0.00" from="DA" to="HD"/>
    <trip id="9" depart="0.00" from="JL" to="AB"/>
    <trip id="10" depart="0.00" from="JL" to="IJ"/>
    <trip id="11" depart="0.00" from="EB" to="CD"/>
    <trip id="12" depart="0.00" from="LJ" to="EB"/>
    <trip id="13" depart="0.00" from="BD" to="BD"/>
    <trip id="14" depart="0.00" from="KG" to="HD"/>
    <trip id="15" depart="0.00" from="JL" to="JG"/>
    <trip id="16" depart="0.00" from="GH" to="MJ"/>
    <trip id="17" depart="0.00" from="EH" to="GJ"/>
    <trip id="18" depart="0.00" from="JM" to="HE"/>
    <trip id="19" depart="0.00" from="KH" to="GK"/>
    <trip id="20" depart="0.00" from="IJ" to="AD"/>
    <trip id="21" depart="0.00" from="DA" to="DE"/>
    <trip id="22" depart="0.00" from="BA" to="DB"/>
    <trip id="23" depart="0.00" from="BD" to="DE"/>
    <trip id="24" depart="0.00" from="HG" to="ED"/>
    <trip id="25" depart="0.00" from="ED" to="DA"/>
    <trip id="26" depart="0.00" from="DC" to="LI"/>
    <trip id="27" depart="0.00" from="HK" to="HE"/>
    <trip id="28" depart="0.00" from="CF" to="IL"/>
    <trip id="29" depart="0.00" from="CD" to="EH"/>
    <trip id="30" depart="0.00" from="MK" to="HG"/>
    <trip id="31" depart="0.00" from="GJ" to="IF"/>
    <trip id="32" depart="0.00" from="KG" to="JK"/>
    <trip id="33" depart="0.00" from="DA" to="AC"/>
    <trip id="34" depart="0.00" from="DH" to="DC"/>
    <trip id="35" depart="0.00" from="DA" to="LJ"/>
    <trip id="36" depart="0.00" from="KJ" to="DH"/>
    <trip id="37" depart="0.00" from="HK" to="EH"/>
    <trip id="38" depart="0.00" from="KM" to="GC"/>
    <trip id="39" depart="0.00" from="DC" to="DB"/>
    <trip id="40" depart="0.00" from="GJ" to="DC"/>
    <trip id="41" depart="0.00" from="HD" to="KM"/>
    <trip id="42" depart="0.00" from="FC" to="DA"/>
    <trip id="43" depart="0.00" from="MK" to="GF"/>
    <trip id="44" depart="0.00" from="BD" to="AD"/>
    <trip id="45" depart="0.00" from="BE" to="HG"/>
    <trip id="46" depart="0.00" from="JL" to="FG"/>
    <trip id="47" depart="0.00" from="BA" to="EH"/>
    <trip id="48" depart="0.00" from="MK" to="GH"/>
    <trip id="49" depart="0.00" from="MJ" to="KH"/>
    <trip id="50" depart="0.00" from="AB" to="IL"/>
    <trip id="51" depart="0.00" from="IF" to="GH"/>
    <trip id="52" depart="0.00" from="DC" to="HG"/>
    <trip id="53" depart="0.00" from="BE" to="FG"/>
    <trip id="54" depart="0.00" from="FI" to="LJ"/>
    <trip id="55" depart="0.00" from="KJ" to="DC"/>
    <trip id="56" depart="0.00" from="GF" to="CF"/>
    <trip id="57" depart="0.00" from="KM" to="KH"/>
    <trip id="58" depart="0.00" from="DG" to="HG"/>
    <trip id="59" depart="0.00" from="HE" to="CD"/>
    <trip id="60" depart="0.00" from="JI" to="GH"/>
    <trip id="61" depart="0.00" from="JK" to="GH"/>
    <trip id="62" depart="0.00" from="AB" to="DH"/>
    <trip id="63" depart="0.00" from="AB" to="LI"/>
    <trip id="64" depart="0.00" from="KJ" to="JM"/>
    <trip id="65" depart="0.00" from="DG" to="AD"/>
    <trip id="66" depart="0.00" from="KJ" to="LJ"/>
    <trip id="67" depart="0.00" from="BD" to="GD"/>
    <trip id="68" depart="0.00" from="BA" to="JI"/>
    <trip id="69" depart="0.00" from="JI" to="CA"/>
    <trip id="70" depart="0.00" from="GC" to="GJ"/>
    <trip id="71" depart="0.00" from="DC" to="KH"/>
    <trip id="72" depart="0.00" from="FG" to="DA"/>
    <trip id="73" depart="0.00" from="GH" to="JG"/>
    <trip id="74" depart="0.00" from="CG" to="DG"/>
    <trip id="75" depart="0.00" from="MK" to="HK"/>
    <trip id="76" depart="0.00" from="FI" to="GF"/>
    <trip id="77" depart="0.00" from="BE" to="DA"/>
    <trip id="78" depart="0.00" from="EB" to="HD"/>
    <trip id="79" depart="0.00" from="DB" to="DA"/>
    <trip id="80" depart="0.00" from="BA" to="HG"/>
    <trip id="81" depart="0.00" from="DA" to="KM"/>
    <trip id="82" depart="0.00" from="KH" to="BA"/>
    <trip id="83" depart="0.00" from="DB" to="IF"/>
    <trip id="84" depart="0.00" from="DA" to="CA"/>
    <trip id="85" depart="0.00" from="LI" to="GK"/>
    <trip id="86" depart="0.00" from="GC" to="JK"/>
    <trip id="87" depart="0.00" from="JL" to="CG"/>
    <trip id="88" depart="0.00" from="BD" to="FG"/>
    <trip id="89" depart="0.00" from="FG" to="GC"/>
    <trip id="90" depart="0.00" from="IL" to="IF"/>
    <trip id="91" depart="0.00" from="MK" to="BD"/>
    <trip id="92" depart="0.00" from="FC" to="EB"/>
    <trip id="93" depart="0.00" from="KH" to="DB"/>
    <trip id="94" depart="0.00" from="CG" to="FI"/>
    <trip id="95" depart="0.00" from="FG" to="DE"/>
    <trip id="96" depart="0.00" from="DB" to="LI"/>
    <trip id="97" depart="0.00" from="FI" to="KH"/>
    <trip id="98" depart="0.00" from="GJ" to="AD"/>
    <trip id="99" depart="0.00" from="MK" to="KG"/>
</routes>
