<?xml version="1.0" encoding="UTF-8"?>

<!-- generated on 2023-06-13 11:49:01.029261 by randomTrips.py v1_16_0+0000-94ec4c6cd72
<configuration>
    <end value="250"/>
    <net-file value="./network_files/net.net.xml"/>
    <output-trip-file value="./network_files/ow/trips/ow250output.trips.xml"/>
</configuration>
-->

<routes xmlns:xsi="http://www.w3.org/2001/XMLSchema-instance" xsi:noNamespaceSchemaLocation="http://sumo.dlr.de/xsd/routes_file.xsd">
    <trip id="0" depart="0.00" from="HG" to="AC"/>
    <trip id="1" depart="1.00" from="DE" to="DA"/>
    <trip id="2" depart="2.00" from="JG" to="IF"/>
    <trip id="3" depart="3.00" from="KJ" to="BD"/>
    <trip id="4" depart="4.00" from="FG" to="AC"/>
    <trip id="5" depart="5.00" from="DA" to="GF"/>
    <trip id="6" depart="6.00" from="AC" to="CG"/>
    <trip id="7" depart="7.00" from="HK" to="GJ"/>
    <trip id="8" depart="8.00" from="DA" to="HD"/>
    <trip id="9" depart="9.00" from="JL" to="AB"/>
    <trip id="10" depart="10.00" from="JL" to="IJ"/>
    <trip id="11" depart="11.00" from="EB" to="CD"/>
    <trip id="12" depart="12.00" from="LJ" to="EB"/>
    <trip id="13" depart="13.00" from="BD" to="BD"/>
    <trip id="14" depart="14.00" from="KG" to="HD"/>
    <trip id="15" depart="15.00" from="JL" to="JG"/>
    <trip id="16" depart="16.00" from="GH" to="MJ"/>
    <trip id="17" depart="17.00" from="EH" to="GJ"/>
    <trip id="18" depart="18.00" from="JM" to="HE"/>
    <trip id="19" depart="19.00" from="KH" to="GK"/>
    <trip id="20" depart="20.00" from="IJ" to="AD"/>
    <trip id="21" depart="21.00" from="DA" to="DE"/>
    <trip id="22" depart="22.00" from="BA" to="DB"/>
    <trip id="23" depart="23.00" from="BD" to="DE"/>
    <trip id="24" depart="24.00" from="HG" to="ED"/>
    <trip id="25" depart="25.00" from="ED" to="DA"/>
    <trip id="26" depart="26.00" from="DC" to="LI"/>
    <trip id="27" depart="27.00" from="HK" to="HE"/>
    <trip id="28" depart="28.00" from="CF" to="IL"/>
    <trip id="29" depart="29.00" from="CD" to="EH"/>
    <trip id="30" depart="30.00" from="MK" to="HG"/>
    <trip id="31" depart="31.00" from="GJ" to="IF"/>
    <trip id="32" depart="32.00" from="KG" to="JK"/>
    <trip id="33" depart="33.00" from="DA" to="AC"/>
    <trip id="34" depart="34.00" from="DH" to="DC"/>
    <trip id="35" depart="35.00" from="DA" to="LJ"/>
    <trip id="36" depart="36.00" from="KJ" to="DH"/>
    <trip id="37" depart="37.00" from="HK" to="EH"/>
    <trip id="38" depart="38.00" from="KM" to="GC"/>
    <trip id="39" depart="39.00" from="DC" to="DB"/>
    <trip id="40" depart="40.00" from="GJ" to="DC"/>
    <trip id="41" depart="41.00" from="HD" to="KM"/>
    <trip id="42" depart="42.00" from="FC" to="DA"/>
    <trip id="43" depart="43.00" from="MK" to="GF"/>
    <trip id="44" depart="44.00" from="BD" to="AD"/>
    <trip id="45" depart="45.00" from="BE" to="HG"/>
    <trip id="46" depart="46.00" from="JL" to="FG"/>
    <trip id="47" depart="47.00" from="BA" to="EH"/>
    <trip id="48" depart="48.00" from="MK" to="GH"/>
    <trip id="49" depart="49.00" from="MJ" to="KH"/>
    <trip id="50" depart="50.00" from="AB" to="IL"/>
    <trip id="51" depart="51.00" from="IF" to="GH"/>
    <trip id="52" depart="52.00" from="DC" to="HG"/>
    <trip id="53" depart="53.00" from="BE" to="FG"/>
    <trip id="54" depart="54.00" from="FI" to="LJ"/>
    <trip id="55" depart="55.00" from="KJ" to="DC"/>
    <trip id="56" depart="56.00" from="GF" to="CF"/>
    <trip id="57" depart="57.00" from="KM" to="KH"/>
    <trip id="58" depart="58.00" from="DG" to="HG"/>
    <trip id="59" depart="59.00" from="HE" to="CD"/>
    <trip id="60" depart="60.00" from="JI" to="GH"/>
    <trip id="61" depart="61.00" from="JK" to="GH"/>
    <trip id="62" depart="62.00" from="AB" to="DH"/>
    <trip id="63" depart="63.00" from="AB" to="LI"/>
    <trip id="64" depart="64.00" from="KJ" to="JM"/>
    <trip id="65" depart="65.00" from="DG" to="AD"/>
    <trip id="66" depart="66.00" from="KJ" to="LJ"/>
    <trip id="67" depart="67.00" from="BD" to="GD"/>
    <trip id="68" depart="68.00" from="BA" to="JI"/>
    <trip id="69" depart="69.00" from="JI" to="CA"/>
    <trip id="70" depart="70.00" from="GC" to="GJ"/>
    <trip id="71" depart="71.00" from="DC" to="KH"/>
    <trip id="72" depart="72.00" from="FG" to="DA"/>
    <trip id="73" depart="73.00" from="GH" to="JG"/>
    <trip id="74" depart="74.00" from="CG" to="DG"/>
    <trip id="75" depart="75.00" from="MK" to="HK"/>
    <trip id="76" depart="76.00" from="FI" to="GF"/>
    <trip id="77" depart="77.00" from="BE" to="DA"/>
    <trip id="78" depart="78.00" from="EB" to="HD"/>
    <trip id="79" depart="79.00" from="DB" to="DA"/>
    <trip id="80" depart="80.00" from="BA" to="HG"/>
    <trip id="81" depart="81.00" from="DA" to="KM"/>
    <trip id="82" depart="82.00" from="KH" to="BA"/>
    <trip id="83" depart="83.00" from="DB" to="IF"/>
    <trip id="84" depart="84.00" from="DA" to="CA"/>
    <trip id="85" depart="85.00" from="LI" to="GK"/>
    <trip id="86" depart="86.00" from="GC" to="JK"/>
    <trip id="87" depart="87.00" from="JL" to="CG"/>
    <trip id="88" depart="88.00" from="BD" to="FG"/>
    <trip id="89" depart="89.00" from="FG" to="GC"/>
    <trip id="90" depart="90.00" from="IL" to="IF"/>
    <trip id="91" depart="91.00" from="MK" to="BD"/>
    <trip id="92" depart="92.00" from="FC" to="EB"/>
    <trip id="93" depart="93.00" from="KH" to="DB"/>
    <trip id="94" depart="94.00" from="CG" to="FI"/>
    <trip id="95" depart="95.00" from="FG" to="DE"/>
    <trip id="96" depart="96.00" from="DB" to="LI"/>
    <trip id="97" depart="97.00" from="FI" to="KH"/>
    <trip id="98" depart="98.00" from="GJ" to="AD"/>
    <trip id="99" depart="99.00" from="MK" to="KG"/>
    <trip id="100" depart="100.00" from="MJ" to="LI"/>
    <trip id="101" depart="101.00" from="KG" to="CD"/>
    <trip id="102" depart="102.00" from="GD" to="DA"/>
    <trip id="103" depart="103.00" from="FC" to="AD"/>
    <trip id="104" depart="104.00" from="EH" to="MK"/>
    <trip id="105" depart="105.00" from="DC" to="JK"/>
    <trip id="106" depart="106.00" from="FI" to="FG"/>
    <trip id="107" depart="107.00" from="LJ" to="MK"/>
    <trip id="108" depart="108.00" from="GJ" to="IL"/>
    <trip id="109" depart="109.00" from="CD" to="DG"/>
    <trip id="110" depart="110.00" from="MJ" to="GK"/>
    <trip id="111" depart="111.00" from="GJ" to="JG"/>
    <trip id="112" depart="112.00" from="AD" to="HD"/>
    <trip id="113" depart="113.00" from="GF" to="KG"/>
    <trip id="114" depart="114.00" from="CD" to="MJ"/>
    <trip id="115" depart="115.00" from="BA" to="CF"/>
    <trip id="116" depart="116.00" from="HD" to="IF"/>
    <trip id="117" depart="117.00" from="DB" to="BE"/>
    <trip id="118" depart="118.00" from="KJ" to="DB"/>
    <trip id="119" depart="119.00" from="HD" to="HE"/>
    <trip id="120" depart="120.00" from="FG" to="HD"/>
    <trip id="121" depart="121.00" from="GH" to="LI"/>
    <trip id="122" depart="122.00" from="CG" to="IL"/>
    <trip id="123" depart="123.00" from="DB" to="EH"/>
    <trip id="124" depart="124.00" from="IF" to="DG"/>
    <trip id="125" depart="125.00" from="DH" to="JI"/>
    <trip id="126" depart="126.00" from="BA" to="FI"/>
    <trip id="127" depart="127.00" from="MK" to="MK"/>
    <trip id="128" depart="128.00" from="BA" to="DA"/>
    <trip id="129" depart="129.00" from="DC" to="LI"/>
    <trip id="130" depart="130.00" from="KJ" to="KJ"/>
    <trip id="131" depart="131.00" from="ED" to="CD"/>
    <trip id="132" depart="132.00" from="KG" to="IJ"/>
    <trip id="133" depart="133.00" from="HE" to="MK"/>
    <trip id="134" depart="134.00" from="HK" to="AB"/>
    <trip id="135" depart="135.00" from="JM" to="DG"/>
    <trip id="136" depart="136.00" from="HK" to="LJ"/>
    <trip id="137" depart="137.00" from="CA" to="BE"/>
    <trip id="138" depart="138.00" from="BE" to="GJ"/>
    <trip id="139" depart="139.00" from="DE" to="HE"/>
    <trip id="140" depart="140.00" from="IL" to="CG"/>
    <trip id="141" depart="141.00" from="HG" to="DC"/>
    <trip id="142" depart="142.00" from="GD" to="KM"/>
    <trip id="143" depart="143.00" from="KG" to="BD"/>
    <trip id="144" depart="144.00" from="FG" to="DE"/>
    <trip id="145" depart="145.00" from="AB" to="JK"/>
    <trip id="146" depart="146.00" from="HG" to="DC"/>
    <trip id="147" depart="147.00" from="JG" to="GJ"/>
    <trip id="148" depart="148.00" from="FG" to="AB"/>
    <trip id="149" depart="149.00" from="BA" to="KJ"/>
    <trip id="150" depart="150.00" from="KM" to="GJ"/>
    <trip id="151" depart="151.00" from="KG" to="GK"/>
    <trip id="152" depart="152.00" from="CD" to="CA"/>
    <trip id="153" depart="153.00" from="DG" to="KM"/>
    <trip id="154" depart="154.00" from="JL" to="KH"/>
    <trip id="155" depart="155.00" from="KM" to="DA"/>
    <trip id="156" depart="156.00" from="DB" to="BD"/>
    <trip id="157" depart="157.00" from="JK" to="KJ"/>
    <trip id="158" depart="158.00" from="FC" to="HE"/>
    <trip id="159" depart="159.00" from="CD" to="LI"/>
    <trip id="160" depart="160.00" from="KH" to="MJ"/>
    <trip id="161" depart="161.00" from="JL" to="KJ"/>
    <trip id="162" depart="162.00" from="AC" to="JG"/>
    <trip id="163" depart="163.00" from="DH" to="LI"/>
    <trip id="164" depart="164.00" from="JL" to="KH"/>
    <trip id="165" depart="165.00" from="JL" to="DC"/>
    <trip id="166" depart="166.00" from="JK" to="BE"/>
    <trip id="167" depart="167.00" from="KH" to="KH"/>
    <trip id="168" depart="168.00" from="DA" to="JM"/>
    <trip id="169" depart="169.00" from="GC" to="DG"/>
    <trip id="170" depart="170.00" from="JL" to="DA"/>
    <trip id="171" depart="171.00" from="AC" to="CG"/>
    <trip id="172" depart="172.00" from="DH" to="KH"/>
    <trip id="173" depart="173.00" from="MJ" to="DE"/>
    <trip id="174" depart="174.00" from="HG" to="FC"/>
    <trip id="175" depart="175.00" from="MK" to="GH"/>
    <trip id="176" depart="176.00" from="LJ" to="BE"/>
    <trip id="177" depart="177.00" from="MJ" to="CF"/>
    <trip id="178" depart="178.00" from="MJ" to="DC"/>
    <trip id="179" depart="179.00" from="BE" to="FG"/>
    <trip id="180" depart="180.00" from="IL" to="DH"/>
    <trip id="181" depart="181.00" from="HE" to="GF"/>
    <trip id="182" depart="182.00" from="EH" to="GK"/>
    <trip id="183" depart="183.00" from="DC" to="IL"/>
    <trip id="184" depart="184.00" from="AB" to="LI"/>
    <trip id="185" depart="185.00" from="GH" to="IL"/>
    <trip id="186" depart="186.00" from="JG" to="IF"/>
    <trip id="187" depart="187.00" from="ED" to="BA"/>
    <trip id="188" depart="188.00" from="HK" to="DH"/>
    <trip id="189" depart="189.00" from="DH" to="KG"/>
    <trip id="190" depart="190.00" from="IL" to="DG"/>
    <trip id="191" depart="191.00" from="DG" to="FC"/>
    <trip id="192" depart="192.00" from="FC" to="DG"/>
    <trip id="193" depart="193.00" from="CA" to="FG"/>
    <trip id="194" depart="194.00" from="LJ" to="IF"/>
    <trip id="195" depart="195.00" from="KM" to="HE"/>
    <trip id="196" depart="196.00" from="DG" to="GJ"/>
    <trip id="197" depart="197.00" from="AB" to="DE"/>
    <trip id="198" depart="198.00" from="FG" to="GK"/>
    <trip id="199" depart="199.00" from="HK" to="GC"/>
    <trip id="200" depart="200.00" from="FI" to="DA"/>
    <trip id="201" depart="201.00" from="GC" to="KM"/>
    <trip id="202" depart="202.00" from="JL" to="CF"/>
    <trip id="203" depart="203.00" from="BD" to="GF"/>
    <trip id="204" depart="204.00" from="HG" to="EB"/>
    <trip id="205" depart="205.00" from="JM" to="JI"/>
    <trip id="206" depart="206.00" from="IF" to="DA"/>
    <trip id="207" depart="207.00" from="CG" to="AC"/>
    <trip id="208" depart="208.00" from="DB" to="GC"/>
    <trip id="209" depart="209.00" from="KG" to="BA"/>
    <trip id="210" depart="210.00" from="FC" to="HG"/>
    <trip id="211" depart="211.00" from="CG" to="IJ"/>
    <trip id="212" depart="212.00" from="GD" to="DB"/>
    <trip id="213" depart="213.00" from="HK" to="AB"/>
    <trip id="214" depart="214.00" from="JI" to="JI"/>
    <trip id="215" depart="215.00" from="BE" to="FG"/>
    <trip id="216" depart="216.00" from="CF" to="LJ"/>
    <trip id="217" depart="217.00" from="GF" to="AD"/>
    <trip id="218" depart="218.00" from="DB" to="KG"/>
    <trip id="219" depart="219.00" from="FI" to="JL"/>
    <trip id="220" depart="220.00" from="IF" to="MK"/>
    <trip id="221" depart="221.00" from="HD" to="LJ"/>
    <trip id="222" depart="222.00" from="KJ" to="HE"/>
    <trip id="223" depart="223.00" from="IL" to="GF"/>
    <trip id="224" depart="224.00" from="JM" to="GJ"/>
    <trip id="225" depart="225.00" from="KM" to="JG"/>
    <trip id="226" depart="226.00" from="GC" to="DC"/>
    <trip id="227" depart="227.00" from="DB" to="HG"/>
    <trip id="228" depart="228.00" from="JI" to="GH"/>
    <trip id="229" depart="229.00" from="HG" to="DE"/>
    <trip id="230" depart="230.00" from="BA" to="DE"/>
    <trip id="231" depart="231.00" from="DE" to="DH"/>
    <trip id="232" depart="232.00" from="GH" to="CA"/>
    <trip id="233" depart="233.00" from="DB" to="IJ"/>
    <trip id="234" depart="234.00" from="IJ" to="BA"/>
    <trip id="235" depart="235.00" from="FC" to="GJ"/>
    <trip id="236" depart="236.00" from="FC" to="CG"/>
    <trip id="237" depart="237.00" from="FG" to="KM"/>
    <trip id="238" depart="238.00" from="HD" to="IJ"/>
    <trip id="239" depart="239.00" from="KH" to="JI"/>
    <trip id="240" depart="240.00" from="EH" to="AB"/>
    <trip id="241" depart="241.00" from="EB" to="JI"/>
    <trip id="242" depart="242.00" from="KG" to="LJ"/>
    <trip id="243" depart="243.00" from="FG" to="JG"/>
    <trip id="244" depart="244.00" from="GJ" to="HD"/>
    <trip id="245" depart="245.00" from="DA" to="DA"/>
    <trip id="246" depart="246.00" from="FG" to="AC"/>
    <trip id="247" depart="247.00" from="EB" to="IF"/>
    <trip id="248" depart="248.00" from="FC" to="CD"/>
    <trip id="249" depart="249.00" from="GC" to="CA"/>
</routes>
