<?xml version="1.0" encoding="UTF-8"?>

<!-- generated on 2023-06-15 06:10:54 by Eclipse SUMO netconvert Version 1.17.0
<configuration xmlns:xsi="http://www.w3.org/2001/XMLSchema-instance" xsi:noNamespaceSchemaLocation="http://sumo.dlr.de/xsd/netconvertConfiguration.xsd">

    <input>
        <node-files value="./network_files/nd/nd.nod.xml"/>
        <edge-files value="./network_files/nd/nd.edg-modified.xml"/>
    </input>

    <output>
        <output-file value="./network_files/net.net.xml"/>
    </output>

</configuration>
-->

<net version="1.16" junctionCornerDetail="5" limitTurnSpeed="5.50" xmlns:xsi="http://www.w3.org/2001/XMLSchema-instance" xsi:noNamespaceSchemaLocation="http://sumo.dlr.de/xsd/net_file.xsd">

    <location netOffset="100.00,300.00" convBoundary="0.00,0.00,400.00,300.00" origBoundary="-100.00,-300.00,300.00,0.00" projParameter="!"/>

    <edge id=":A_0" function="internal">
        <lane id=":A_0_0" index="0" speed="6.08" length="7.74" shape="103.20,301.60 101.10,301.30 99.60,300.40 98.70,298.90 98.40,296.80"/>
    </edge>
    <edge id=":A_1" function="internal">
        <lane id=":A_1_0" index="0" speed="3.90" length="2.58" shape="101.60,296.80 101.70,297.50 102.00,298.00 102.50,298.30 103.20,298.40"/>
    </edge>
    <edge id=":B_0" function="internal">
        <lane id=":B_0_0" index="0" speed="3.90" length="2.58" shape="398.40,103.20 398.30,102.50 398.00,102.00 397.50,101.70 396.80,101.60"/>
    </edge>
    <edge id=":B_1" function="internal">
        <lane id=":B_1_0" index="0" speed="6.08" length="7.74" shape="396.80,98.40 398.90,98.70 400.40,99.60 401.30,101.10 401.60,103.20"/>
    </edge>
    <edge id=":C_0" function="internal">
        <lane id=":C_0_0" index="0" speed="3.90" length="2.58" shape="298.40,3.20 298.30,2.50 298.00,2.00 297.50,1.70 296.80,1.60"/>
    </edge>
    <edge id=":C_1" function="internal">
        <lane id=":C_1_0" index="0" speed="6.08" length="7.74" shape="296.80,-1.60 298.90,-1.30 300.40,-0.40 301.30,1.10 301.60,3.20"/>
    </edge>
    <edge id=":D_0" function="internal">
        <lane id=":D_0_0" index="0" speed="6.49" length="14.35" shape="7.73,201.60 3.17,201.09 1.08,199.55 1.47,196.99 4.33,193.41"/>
    </edge>
    <edge id=":D_1" function="internal">
        <lane id=":D_1_0" index="0" speed="4.12" length="4.78" shape="6.59,195.67 5.64,196.86 5.51,197.72 6.21,198.23 7.73,198.40"/>
    </edge>
    <edge id=":E_0" function="internal">
        <lane id=":E_0_0" index="0" speed="8.28" length="15.28" shape="98.40,211.73 97.85,207.30 96.20,204.13 93.45,202.23 89.60,201.60"/>
    </edge>
    <edge id=":E_1" function="internal">
        <lane id=":E_1_0" index="0" speed="60.00" length="19.25" shape="98.40,211.73 97.90,208.01 96.80,203.99 95.70,199.10 95.20,192.80"/>
    </edge>
    <edge id=":E_2" function="internal">
        <lane id=":E_2_0" index="0" speed="9.73" length="8.70" shape="98.40,211.73 99.23,205.90 100.68,203.49"/>
    </edge>
    <edge id=":E_3" function="internal">
        <lane id=":E_3_0" index="0" speed="7.42" length="8.67" shape="98.40,211.73 99.09,205.59 100.57,203.58"/>
    </edge>
    <edge id=":E_4" function="internal">
        <lane id=":E_4_0" index="0" speed="3.65" length="1.44" shape="98.40,211.73 99.20,210.53"/>
    </edge>
    <edge id=":E_25" function="internal">
        <lane id=":E_25_0" index="0" speed="9.73" length="12.79" shape="100.68,203.49 101.73,201.73 105.90,199.23 111.73,198.40"/>
    </edge>
    <edge id=":E_26" function="internal">
        <lane id=":E_26_0" index="0" speed="7.42" length="10.63" shape="100.57,203.58 101.16,202.79 104.60,203.31 109.42,207.16"/>
    </edge>
    <edge id=":E_27" function="internal">
        <lane id=":E_27_0" index="0" speed="3.65" length="3.23" shape="99.20,210.53 100.00,210.13 100.80,210.53 101.60,211.73"/>
    </edge>
    <edge id=":E_5" function="internal">
        <lane id=":E_5_0" index="0" speed="5.47" length="9.74" shape="107.16,209.42 104.73,207.48 102.99,207.22 101.95,208.63 101.60,211.73"/>
    </edge>
    <edge id=":E_6" function="internal">
        <lane id=":E_6_0" index="0" speed="14.55" length="19.72" shape="107.16,209.42 103.13,206.00 98.86,203.56 94.35,202.09 89.60,201.60"/>
    </edge>
    <edge id=":E_7" function="internal">
        <lane id=":E_7_0" index="0" speed="14.37" length="19.24" shape="107.16,209.42 103.33,205.10 100.59,200.89 98.95,196.79 98.40,192.80"/>
    </edge>
    <edge id=":E_8" function="internal">
        <lane id=":E_8_0" index="0" speed="7.42" length="19.31" shape="107.16,209.42 103.31,204.60 102.79,201.16 105.59,199.09 111.73,198.40"/>
    </edge>
    <edge id=":E_9" function="internal">
        <lane id=":E_9_0" index="0" speed="3.65" length="4.67" shape="107.16,209.42 106.88,208.01 107.16,207.16 108.01,206.88 109.42,207.16"/>
    </edge>
    <edge id=":E_10" function="internal">
        <lane id=":E_10_0" index="0" speed="5.47" length="9.74" shape="111.73,201.60 108.63,201.95 107.22,202.99 107.48,204.73 109.42,207.16"/>
    </edge>
    <edge id=":E_11" function="internal">
        <lane id=":E_11_0" index="0" speed="8.54" length="16.33" shape="111.73,201.60 107.30,202.23 104.13,204.13 102.23,207.30 101.60,211.73"/>
    </edge>
    <edge id=":E_12" function="internal">
        <lane id=":E_12_0" index="0" speed="60.00" length="22.13" shape="111.73,201.60 89.60,201.60"/>
    </edge>
    <edge id=":E_13" function="internal">
        <lane id=":E_13_0" index="0" speed="8.94" length="17.99" shape="111.73,201.60 105.90,201.05 101.73,199.40 99.23,196.65 98.40,192.80"/>
    </edge>
    <edge id=":E_14" function="internal">
        <lane id=":E_14_0" index="0" speed="3.65" length="4.67" shape="111.73,201.60 110.53,200.80 110.13,200.00 110.53,199.20 111.73,198.40"/>
    </edge>
    <edge id=":E_15" function="internal">
        <lane id=":E_15_0" index="0" speed="6.85" length="10.12" shape="104.80,192.80 105.23,195.25 106.53,197.00 108.70,198.05 111.73,198.40"/>
    </edge>
    <edge id=":E_16" function="internal">
        <lane id=":E_16_0" index="0" speed="12.91" length="15.46" shape="104.80,192.80 105.09,197.35 105.96,201.26 107.40,204.53 109.42,207.16"/>
    </edge>
    <edge id=":E_17" function="internal">
        <lane id=":E_17_0" index="0" speed="60.00" length="19.25" shape="104.80,192.80 104.30,199.10 103.20,203.99 102.10,208.01 101.60,211.73"/>
    </edge>
    <edge id=":E_18" function="internal">
        <lane id=":E_18_0" index="0" speed="8.67" length="7.60" shape="101.60,192.80 100.85,196.65 98.60,199.40 98.49,199.45"/>
    </edge>
    <edge id=":E_19" function="internal">
        <lane id=":E_19_0" index="0" speed="3.65" length="2.34" shape="101.60,192.80 100.80,194.00 100.00,194.40"/>
    </edge>
    <edge id=":E_28" function="internal">
        <lane id=":E_28_0" index="0" speed="8.67" length="9.25" shape="98.49,199.45 94.85,201.05 89.60,201.60"/>
    </edge>
    <edge id=":E_29" function="internal">
        <lane id=":E_29_0" index="0" speed="3.65" length="2.34" shape="100.00,194.40 99.20,194.00 98.40,192.80"/>
    </edge>
    <edge id=":E_20" function="internal">
        <lane id=":E_20_0" index="0" speed="6.51" length="9.03" shape="89.60,198.40 92.05,198.05 93.80,197.00 94.85,195.25 95.20,192.80"/>
    </edge>
    <edge id=":E_21" function="internal">
        <lane id=":E_21_0" index="0" speed="60.00" length="22.13" shape="89.60,198.40 111.73,198.40"/>
    </edge>
    <edge id=":E_22" function="internal">
        <lane id=":E_22_0" index="0" speed="15.43" length="22.24" shape="89.60,198.40 94.99,198.95 100.09,200.59 104.90,203.33 109.42,207.16"/>
    </edge>
    <edge id=":E_23" function="internal">
        <lane id=":E_23_0" index="0" speed="9.50" length="20.43" shape="89.60,198.40 94.85,199.23 98.60,201.73 100.85,205.90 101.60,211.73"/>
    </edge>
    <edge id=":E_24" function="internal">
        <lane id=":E_24_0" index="0" speed="3.65" length="4.67" shape="89.60,198.40 90.80,199.20 91.20,200.00 90.80,200.80 89.60,201.60"/>
    </edge>
    <edge id=":F_0" function="internal">
        <lane id=":F_0_0" index="0" speed="6.51" length="9.03" shape="198.40,207.20 198.05,204.75 197.00,203.00 195.25,201.95 192.80,201.60"/>
    </edge>
    <edge id=":F_1" function="internal">
        <lane id=":F_1_0" index="0" speed="60.00" length="14.40" shape="198.40,207.20 198.40,192.80"/>
    </edge>
    <edge id=":F_2" function="internal">
        <lane id=":F_2_0" index="0" speed="8.00" length="4.07" shape="198.40,207.20 198.95,203.35 199.04,203.20"/>
    </edge>
    <edge id=":F_3" function="internal">
        <lane id=":F_3_0" index="0" speed="3.65" length="1.44" shape="198.40,207.20 199.20,206.00"/>
    </edge>
    <edge id=":F_16" function="internal">
        <lane id=":F_16_0" index="0" speed="8.00" length="10.13" shape="199.04,203.20 200.60,200.60 203.35,198.95 207.20,198.40"/>
    </edge>
    <edge id=":F_17" function="internal">
        <lane id=":F_17_0" index="0" speed="3.65" length="3.23" shape="199.20,206.00 200.00,205.60 200.80,206.00 201.60,207.20"/>
    </edge>
    <edge id=":F_4" function="internal">
        <lane id=":F_4_0" index="0" speed="6.51" length="9.03" shape="207.20,201.60 204.75,201.95 203.00,203.00 201.95,204.75 201.60,207.20"/>
    </edge>
    <edge id=":F_5" function="internal">
        <lane id=":F_5_0" index="0" speed="60.00" length="14.40" shape="207.20,201.60 192.80,201.60"/>
    </edge>
    <edge id=":F_6" function="internal">
        <lane id=":F_6_0" index="0" speed="8.00" length="14.19" shape="207.20,201.60 203.35,201.05 200.60,199.40 198.95,196.65 198.40,192.80"/>
    </edge>
    <edge id=":F_7" function="internal">
        <lane id=":F_7_0" index="0" speed="3.65" length="4.67" shape="207.20,201.60 206.00,200.80 205.60,200.00 206.00,199.20 207.20,198.40"/>
    </edge>
    <edge id=":F_8" function="internal">
        <lane id=":F_8_0" index="0" speed="6.51" length="9.03" shape="201.60,192.80 201.95,195.25 203.00,197.00 204.75,198.05 207.20,198.40"/>
    </edge>
    <edge id=":F_9" function="internal">
        <lane id=":F_9_0" index="0" speed="60.00" length="14.40" shape="201.60,192.80 201.60,207.20"/>
    </edge>
    <edge id=":F_10" function="internal">
        <lane id=":F_10_0" index="0" speed="8.00" length="4.07" shape="201.60,192.80 201.05,196.65 200.96,196.80"/>
    </edge>
    <edge id=":F_11" function="internal">
        <lane id=":F_11_0" index="0" speed="3.65" length="1.44" shape="201.60,192.80 200.80,194.00"/>
    </edge>
    <edge id=":F_18" function="internal">
        <lane id=":F_18_0" index="0" speed="8.00" length="10.13" shape="200.96,196.80 199.40,199.40 196.65,201.05 192.80,201.60"/>
    </edge>
    <edge id=":F_19" function="internal">
        <lane id=":F_19_0" index="0" speed="3.65" length="3.23" shape="200.80,194.00 200.00,194.40 199.20,194.00 198.40,192.80"/>
    </edge>
    <edge id=":F_12" function="internal">
        <lane id=":F_12_0" index="0" speed="6.51" length="9.03" shape="192.80,198.40 195.25,198.05 197.00,197.00 198.05,195.25 198.40,192.80"/>
    </edge>
    <edge id=":F_13" function="internal">
        <lane id=":F_13_0" index="0" speed="60.00" length="14.40" shape="192.80,198.40 207.20,198.40"/>
    </edge>
    <edge id=":F_14" function="internal">
        <lane id=":F_14_0" index="0" speed="8.00" length="14.19" shape="192.80,198.40 196.65,198.95 199.40,200.60 201.05,203.35 201.60,207.20"/>
    </edge>
    <edge id=":F_15" function="internal">
        <lane id=":F_15_0" index="0" speed="3.65" length="4.67" shape="192.80,198.40 194.00,199.20 194.40,200.00 194.00,200.80 192.80,201.60"/>
    </edge>
    <edge id=":G_0" function="internal">
        <lane id=":G_0_0" index="0" speed="60.00" length="14.40" shape="307.20,201.60 292.80,201.60"/>
    </edge>
    <edge id=":G_1" function="internal">
        <lane id=":G_1_0" index="0" speed="8.00" length="4.07" shape="307.20,201.60 303.35,201.05 303.20,200.96"/>
    </edge>
    <edge id=":G_2" function="internal">
        <lane id=":G_2_0" index="0" speed="3.65" length="1.44" shape="307.20,201.60 306.00,200.80"/>
    </edge>
    <edge id=":G_9" function="internal">
        <lane id=":G_9_0" index="0" speed="8.00" length="10.13" shape="303.20,200.96 300.60,199.40 298.95,196.65 298.40,192.80"/>
    </edge>
    <edge id=":G_10" function="internal">
        <lane id=":G_10_0" index="0" speed="3.65" length="3.23" shape="306.00,200.80 305.60,200.00 306.00,199.20 307.20,198.40"/>
    </edge>
    <edge id=":G_3" function="internal">
        <lane id=":G_3_0" index="0" speed="6.51" length="9.03" shape="301.60,192.80 301.95,195.25 303.00,197.00 304.75,198.05 307.20,198.40"/>
    </edge>
    <edge id=":G_4" function="internal">
        <lane id=":G_4_0" index="0" speed="8.00" length="14.19" shape="301.60,192.80 301.05,196.65 299.40,199.40 296.65,201.05 292.80,201.60"/>
    </edge>
    <edge id=":G_5" function="internal">
        <lane id=":G_5_0" index="0" speed="3.65" length="4.67" shape="301.60,192.80 300.80,194.00 300.00,194.40 299.20,194.00 298.40,192.80"/>
    </edge>
    <edge id=":G_6" function="internal">
        <lane id=":G_6_0" index="0" speed="6.51" length="9.03" shape="292.80,198.40 295.25,198.05 297.00,197.00 298.05,195.25 298.40,192.80"/>
    </edge>
    <edge id=":G_7" function="internal">
        <lane id=":G_7_0" index="0" speed="60.00" length="14.40" shape="292.80,198.40 307.20,198.40"/>
    </edge>
    <edge id=":G_8" function="internal">
        <lane id=":G_8_0" index="0" speed="3.65" length="1.44" shape="292.80,198.40 294.00,199.20"/>
    </edge>
    <edge id=":G_11" function="internal">
        <lane id=":G_11_0" index="0" speed="3.65" length="3.23" shape="294.00,199.20 294.40,200.00 294.00,200.80 292.80,201.60"/>
    </edge>
    <edge id=":H_0" function="internal">
        <lane id=":H_0_0" index="0" speed="12.76" length="24.37" shape="401.60,192.80 400.56,196.90 397.45,201.01 392.27,205.14 385.01,209.28"/>
    </edge>
    <edge id=":H_1" function="internal">
        <lane id=":H_1_0" index="0" speed="10.09" length="4.60" shape="401.60,192.80 400.40,196.65 399.95,196.99"/>
    </edge>
    <edge id=":H_2" function="internal">
        <lane id=":H_2_0" index="0" speed="3.65" length="1.44" shape="401.60,192.80 400.80,194.00"/>
    </edge>
    <edge id=":H_9" function="internal">
        <lane id=":H_9_0" index="0" speed="10.09" length="18.57" shape="399.95,196.99 396.81,199.40 390.83,201.05 382.44,201.60"/>
    </edge>
    <edge id=":H_10" function="internal">
        <lane id=":H_10_0" index="0" speed="3.65" length="3.23" shape="400.80,194.00 400.00,194.40 399.20,194.00 398.40,192.80"/>
    </edge>
    <edge id=":H_3" function="internal">
        <lane id=":H_3_0" index="0" speed="8.99" length="18.20" shape="382.44,198.40 389.43,198.05 394.41,197.00 397.40,195.25 398.40,192.80"/>
    </edge>
    <edge id=":H_4" function="internal">
        <lane id=":H_4_0" index="0" speed="6.26" length="15.29" shape="382.44,198.40 386.25,199.71 388.14,202.80 387.83,206.41 385.01,209.28"/>
    </edge>
    <edge id=":H_5" function="internal">
        <lane id=":H_5_0" index="0" speed="3.65" length="4.67" shape="382.44,198.40 383.64,199.20 384.04,200.00 383.64,200.80 382.44,201.60"/>
    </edge>
    <edge id=":H_6" function="internal">
        <lane id=":H_6_0" index="0" speed="5.60" length="11.85" shape="383.58,206.42 387.13,204.31 388.12,202.80 386.56,201.90 382.44,201.60"/>
    </edge>
    <edge id=":H_7" function="internal">
        <lane id=":H_7_0" index="0" speed="11.84" length="20.87" shape="383.58,206.42 390.07,202.79 394.70,199.31 397.47,195.98 398.40,192.80"/>
    </edge>
    <edge id=":H_8" function="internal">
        <lane id=":H_8_0" index="0" speed="3.65" length="1.44" shape="383.58,206.42 385.01,206.60"/>
    </edge>
    <edge id=":H_11" function="internal">
        <lane id=":H_11_0" index="0" speed="3.65" length="3.23" shape="385.01,206.60 385.73,207.14 385.73,208.03 385.01,209.28"/>
    </edge>
    <edge id=":I_0" function="internal">
        <lane id=":I_0_0" index="0" speed="5.47" length="9.74" shape="95.20,114.93 94.85,111.83 93.81,110.42 92.07,110.68 89.64,112.62"/>
    </edge>
    <edge id=":I_1" function="internal">
        <lane id=":I_1_0" index="0" speed="17.22" length="27.81" shape="95.20,114.93 95.95,108.76 98.19,102.64 101.93,96.58 107.16,90.58"/>
    </edge>
    <edge id=":I_2" function="internal">
        <lane id=":I_2_0" index="0" speed="10.28" length="24.13" shape="98.40,114.93 99.23,107.70 101.73,102.53 105.90,99.43 111.73,98.40"/>
    </edge>
    <edge id=":I_3" function="internal">
        <lane id=":I_3_0" index="0" speed="3.65" length="4.67" shape="98.40,114.93 99.20,113.73 100.00,113.33 100.80,113.73 101.60,114.93"/>
    </edge>
    <edge id=":I_4" function="internal">
        <lane id=":I_4_0" index="0" speed="8.62" length="16.66" shape="111.73,101.60 108.70,102.43 106.53,104.93 105.23,109.10 104.80,114.93"/>
    </edge>
    <edge id=":I_5" function="internal">
        <lane id=":I_5_0" index="0" speed="16.44" length="25.30" shape="111.73,101.60 106.20,102.29 100.67,104.36 95.15,107.80 89.64,112.62"/>
    </edge>
    <edge id=":I_6" function="internal">
        <lane id=":I_6_0" index="0" speed="7.42" length="19.31" shape="111.73,101.60 105.59,100.91 102.79,98.84 103.31,95.40 107.16,90.58"/>
    </edge>
    <edge id=":I_7" function="internal">
        <lane id=":I_7_0" index="0" speed="3.65" length="4.67" shape="111.73,101.60 110.53,100.80 110.13,100.00 110.53,99.20 111.73,98.40"/>
    </edge>
    <edge id=":I_8" function="internal">
        <lane id=":I_8_0" index="0" speed="5.47" length="9.74" shape="109.42,92.84 107.48,95.27 107.22,97.01 108.63,98.05 111.73,98.40"/>
    </edge>
    <edge id=":I_9" function="internal">
        <lane id=":I_9_0" index="0" speed="16.02" length="24.03" shape="109.42,92.84 106.00,97.15 103.56,102.27 102.09,108.20 101.60,114.93"/>
    </edge>
    <edge id=":I_10" function="internal">
        <lane id=":I_10_0" index="0" speed="60.00" length="27.98" shape="109.42,92.84 89.64,112.62"/>
    </edge>
    <edge id=":I_11" function="internal">
        <lane id=":I_11_0" index="0" speed="3.65" length="4.67" shape="109.42,92.84 108.01,93.12 107.16,92.84 106.88,91.99 107.16,90.58"/>
    </edge>
    <edge id=":I_12" function="internal">
        <lane id=":I_12_0" index="0" speed="60.00" length="27.98" shape="87.38,110.36 107.16,90.58"/>
    </edge>
    <edge id=":I_13" function="internal">
        <lane id=":I_13_0" index="0" speed="17.22" length="27.81" shape="87.38,110.36 93.38,105.13 99.44,101.39 105.56,99.15 111.73,98.40"/>
    </edge>
    <edge id=":I_14" function="internal">
        <lane id=":I_14_0" index="0" speed="7.50" length="19.73" shape="87.38,110.36 92.08,107.43 96.69,107.33 100.20,109.89 101.60,114.93"/>
    </edge>
    <edge id=":I_15" function="internal">
        <lane id=":I_15_0" index="0" speed="3.65" length="4.67" shape="87.38,110.36 88.79,110.08 89.64,110.36 89.92,111.21 89.64,112.62"/>
    </edge>
    <edge id=":J_0" function="internal">
        <lane id=":J_0_0" index="0" speed="6.51" length="9.03" shape="198.40,107.20 198.05,104.75 197.00,103.00 195.25,101.95 192.80,101.60"/>
    </edge>
    <edge id=":J_1" function="internal">
        <lane id=":J_1_0" index="0" speed="8.00" length="14.19" shape="198.40,107.20 198.95,103.35 200.60,100.60 203.35,98.95 207.20,98.40"/>
    </edge>
    <edge id=":J_2" function="internal">
        <lane id=":J_2_0" index="0" speed="3.65" length="4.67" shape="198.40,107.20 199.20,106.00 200.00,105.60 200.80,106.00 201.60,107.20"/>
    </edge>
    <edge id=":J_3" function="internal">
        <lane id=":J_3_0" index="0" speed="6.51" length="9.03" shape="207.20,101.60 204.75,101.95 203.00,103.00 201.95,104.75 201.60,107.20"/>
    </edge>
    <edge id=":J_4" function="internal">
        <lane id=":J_4_0" index="0" speed="60.00" length="14.40" shape="207.20,101.60 192.80,101.60"/>
    </edge>
    <edge id=":J_5" function="internal">
        <lane id=":J_5_0" index="0" speed="3.65" length="1.44" shape="207.20,101.60 206.00,100.80"/>
    </edge>
    <edge id=":J_9" function="internal">
        <lane id=":J_9_0" index="0" speed="3.65" length="3.23" shape="206.00,100.80 205.60,100.00 206.00,99.20 207.20,98.40"/>
    </edge>
    <edge id=":J_6" function="internal">
        <lane id=":J_6_0" index="0" speed="60.00" length="14.40" shape="192.80,98.40 207.20,98.40"/>
    </edge>
    <edge id=":J_7" function="internal">
        <lane id=":J_7_0" index="0" speed="8.00" length="4.07" shape="192.80,98.40 196.65,98.95 196.80,99.04"/>
    </edge>
    <edge id=":J_8" function="internal">
        <lane id=":J_8_0" index="0" speed="3.65" length="1.44" shape="192.80,98.40 194.00,99.20"/>
    </edge>
    <edge id=":J_10" function="internal">
        <lane id=":J_10_0" index="0" speed="8.00" length="10.13" shape="196.80,99.04 199.40,100.60 201.05,103.35 201.60,107.20"/>
    </edge>
    <edge id=":J_11" function="internal">
        <lane id=":J_11_0" index="0" speed="3.65" length="3.23" shape="194.00,99.20 194.40,100.00 194.00,100.80 192.80,101.60"/>
    </edge>
    <edge id=":K_0" function="internal">
        <lane id=":K_0_0" index="0" speed="6.51" length="9.03" shape="298.40,107.20 298.05,104.75 297.00,103.00 295.25,101.95 292.80,101.60"/>
    </edge>
    <edge id=":K_1" function="internal">
        <lane id=":K_1_0" index="0" speed="60.00" length="14.40" shape="298.40,107.20 298.40,92.80"/>
    </edge>
    <edge id=":K_2" function="internal">
        <lane id=":K_2_0" index="0" speed="8.00" length="4.07" shape="298.40,107.20 298.95,103.35 299.04,103.20"/>
    </edge>
    <edge id=":K_3" function="internal">
        <lane id=":K_3_0" index="0" speed="3.65" length="1.44" shape="298.40,107.20 299.20,106.00"/>
    </edge>
    <edge id=":K_16" function="internal">
        <lane id=":K_16_0" index="0" speed="8.00" length="10.13" shape="299.04,103.20 300.60,100.60 303.35,98.95 307.20,98.40"/>
    </edge>
    <edge id=":K_17" function="internal">
        <lane id=":K_17_0" index="0" speed="3.65" length="3.23" shape="299.20,106.00 300.00,105.60 300.80,106.00 301.60,107.20"/>
    </edge>
    <edge id=":K_4" function="internal">
        <lane id=":K_4_0" index="0" speed="6.51" length="9.03" shape="307.20,101.60 304.75,101.95 303.00,103.00 301.95,104.75 301.60,107.20"/>
    </edge>
    <edge id=":K_5" function="internal">
        <lane id=":K_5_0" index="0" speed="60.00" length="14.40" shape="307.20,101.60 292.80,101.60"/>
    </edge>
    <edge id=":K_6" function="internal">
        <lane id=":K_6_0" index="0" speed="8.00" length="14.19" shape="307.20,101.60 303.35,101.05 300.60,99.40 298.95,96.65 298.40,92.80"/>
    </edge>
    <edge id=":K_7" function="internal">
        <lane id=":K_7_0" index="0" speed="3.65" length="4.67" shape="307.20,101.60 306.00,100.80 305.60,100.00 306.00,99.20 307.20,98.40"/>
    </edge>
    <edge id=":K_8" function="internal">
        <lane id=":K_8_0" index="0" speed="6.51" length="9.03" shape="301.60,92.80 301.95,95.25 303.00,97.00 304.75,98.05 307.20,98.40"/>
    </edge>
    <edge id=":K_9" function="internal">
        <lane id=":K_9_0" index="0" speed="60.00" length="14.40" shape="301.60,92.80 301.60,107.20"/>
    </edge>
    <edge id=":K_10" function="internal">
        <lane id=":K_10_0" index="0" speed="8.00" length="4.07" shape="301.60,92.80 301.05,96.65 300.96,96.80"/>
    </edge>
    <edge id=":K_11" function="internal">
        <lane id=":K_11_0" index="0" speed="3.65" length="1.44" shape="301.60,92.80 300.80,94.00"/>
    </edge>
    <edge id=":K_18" function="internal">
        <lane id=":K_18_0" index="0" speed="8.00" length="10.13" shape="300.96,96.80 299.40,99.40 296.65,101.05 292.80,101.60"/>
    </edge>
    <edge id=":K_19" function="internal">
        <lane id=":K_19_0" index="0" speed="3.65" length="3.23" shape="300.80,94.00 300.00,94.40 299.20,94.00 298.40,92.80"/>
    </edge>
    <edge id=":K_12" function="internal">
        <lane id=":K_12_0" index="0" speed="6.51" length="9.03" shape="292.80,98.40 295.25,98.05 297.00,97.00 298.05,95.25 298.40,92.80"/>
    </edge>
    <edge id=":K_13" function="internal">
        <lane id=":K_13_0" index="0" speed="60.00" length="14.40" shape="292.80,98.40 307.20,98.40"/>
    </edge>
    <edge id=":K_14" function="internal">
        <lane id=":K_14_0" index="0" speed="8.00" length="14.19" shape="292.80,98.40 296.65,98.95 299.40,100.60 301.05,103.35 301.60,107.20"/>
    </edge>
    <edge id=":K_15" function="internal">
        <lane id=":K_15_0" index="0" speed="3.65" length="4.67" shape="292.80,98.40 294.00,99.20 294.40,100.00 294.00,100.80 292.80,101.60"/>
    </edge>
    <edge id=":L_0" function="internal">
        <lane id=":L_0_0" index="0" speed="24.12" length="21.18" shape="208.92,297.33 204.51,298.94 198.80,300.30 192.98,301.25 188.27,301.60"/>
    </edge>
    <edge id=":L_1" function="internal">
        <lane id=":L_1_0" index="0" speed="10.84" length="6.08" shape="208.92,297.33 204.31,298.78 203.07,298.71"/>
    </edge>
    <edge id=":L_2" function="internal">
        <lane id=":L_2_0" index="0" speed="7.81" length="5.23" shape="208.92,297.33 204.32,298.73 203.93,298.61"/>
    </edge>
    <edge id=":L_3" function="internal">
        <lane id=":L_3_0" index="0" speed="3.65" length="1.44" shape="208.92,297.33 207.49,297.15"/>
    </edge>
    <edge id=":L_16" function="internal">
        <lane id=":L_16_0" index="0" speed="10.84" length="14.22" shape="203.07,298.71 199.72,298.52 195.14,296.54 190.58,292.84"/>
    </edge>
    <edge id=":L_17" function="internal">
        <lane id=":L_17_0" index="0" speed="7.81" length="13.01" shape="203.93,298.61 201.03,297.69 199.06,294.21 198.40,288.27"/>
    </edge>
    <edge id=":L_18" function="internal">
        <lane id=":L_18_0" index="0" speed="3.65" length="3.23" shape="207.49,297.15 206.78,296.61 206.78,295.72 207.49,294.46"/>
    </edge>
    <edge id=":L_4" function="internal">
        <lane id=":L_4_0" index="0" speed="6.22" length="11.07" shape="201.60,288.27 201.97,292.09 203.07,294.39 204.91,295.18 207.49,294.46"/>
    </edge>
    <edge id=":L_5" function="internal">
        <lane id=":L_5_0" index="0" speed="9.73" length="21.49" shape="201.60,288.27 200.77,294.10 198.27,298.27 194.10,300.77 188.27,301.60"/>
    </edge>
    <edge id=":L_6" function="internal">
        <lane id=":L_6_0" index="0" speed="7.42" length="19.31" shape="201.60,288.27 200.91,294.41 198.84,297.21 195.40,296.69 190.58,292.84"/>
    </edge>
    <edge id=":L_7" function="internal">
        <lane id=":L_7_0" index="0" speed="3.65" length="4.67" shape="201.60,288.27 200.80,289.47 200.00,289.87 199.20,289.47 198.40,288.27"/>
    </edge>
    <edge id=":L_8" function="internal">
        <lane id=":L_8_0" index="0" speed="5.47" length="9.74" shape="192.84,290.58 195.27,292.52 197.01,292.78 198.05,291.37 198.40,288.27"/>
    </edge>
    <edge id=":L_9" function="internal">
        <lane id=":L_9_0" index="0" speed="9.75" length="16.28" shape="192.84,290.58 196.56,293.62 200.24,295.29 203.89,295.57 207.49,294.46"/>
    </edge>
    <edge id=":L_10" function="internal">
        <lane id=":L_10_0" index="0" speed="7.42" length="19.31" shape="192.84,290.58 196.69,295.40 197.21,298.84 194.41,300.91 188.27,301.60"/>
    </edge>
    <edge id=":L_11" function="internal">
        <lane id=":L_11_0" index="0" speed="3.65" length="4.67" shape="192.84,290.58 193.12,291.99 192.84,292.84 191.99,293.12 190.58,292.84"/>
    </edge>
    <edge id=":L_12" function="internal">
        <lane id=":L_12_0" index="0" speed="5.47" length="9.74" shape="188.27,298.40 191.37,298.05 192.78,297.01 192.52,295.27 190.58,292.84"/>
    </edge>
    <edge id=":L_13" function="internal">
        <lane id=":L_13_0" index="0" speed="8.54" length="16.33" shape="188.27,298.40 192.70,297.77 195.87,295.87 197.77,292.70 198.40,288.27"/>
    </edge>
    <edge id=":L_14" function="internal">
        <lane id=":L_14_0" index="0" speed="23.28" length="19.72" shape="188.27,298.40 192.76,298.10 198.08,297.27 203.31,296.02 207.49,294.46"/>
    </edge>
    <edge id=":L_15" function="internal">
        <lane id=":L_15_0" index="0" speed="3.65" length="1.44" shape="188.27,298.40 189.47,299.20"/>
    </edge>
    <edge id=":L_19" function="internal">
        <lane id=":L_19_0" index="0" speed="3.65" length="3.23" shape="189.47,299.20 189.87,300.00 189.47,300.80 188.27,301.60"/>
    </edge>
    <edge id=":M_0" function="internal">
        <lane id=":M_0_0" index="0" speed="4.20" length="1.26" shape="201.33,1.60 201.01,1.63 200.71,1.72 200.44,1.86 200.19,2.07"/>
    </edge>
    <edge id=":M_1" function="internal">
        <lane id=":M_1_0" index="0" speed="6.63" length="3.77" shape="197.93,-0.19 198.67,-0.81 199.48,-1.25 200.37,-1.51 201.33,-1.60"/>
    </edge>

    <edge id="AE" from="A" to="E" priority="-1" length="70.00">
        <lane id="AE_0" index="0" speed="60.00" length="70.00" shape="98.40,296.80 98.40,211.73"/>
    </edge>
    <edge id="AL" from="A" to="L" priority="-1" length="90.00">
        <lane id="AL_0" index="0" speed="60.00" length="90.00" shape="103.20,298.40 188.27,298.40"/>
    </edge>
    <edge id="BH" from="B" to="H" priority="-1" length="80.00">
        <lane id="BH_0" index="0" speed="60.00" length="80.00" shape="401.60,103.20 401.60,192.80"/>
    </edge>
    <edge id="BK" from="B" to="K" priority="-1" length="90.00">
        <lane id="BK_0" index="0" speed="60.00" length="90.00" shape="396.80,101.60 307.20,101.60"/>
    </edge>
    <edge id="CK" from="C" to="K" priority="-1" length="80.00">
        <lane id="CK_0" index="0" speed="60.00" length="80.00" shape="301.60,3.20 301.60,92.80"/>
    </edge>
    <edge id="CM" from="C" to="M" priority="-1" length="110.00">
        <lane id="CM_0" index="0" speed="60.00" length="110.00" shape="296.80,1.60 201.33,1.60"/>
    </edge>
    <edge id="DE" from="D" to="E" priority="-1" length="90.00">
        <lane id="DE_0" index="0" speed="60.00" length="90.00" shape="7.73,198.40 89.60,198.40"/>
    </edge>