<?xml version="1.0" encoding="UTF-8"?>

<!-- generated on 2023-06-13 11:53:00 by Eclipse SUMO netconvert Version 1.16.0
<configuration xmlns:xsi="http://www.w3.org/2001/XMLSchema-instance" xsi:noNamespaceSchemaLocation="http://sumo.dlr.de/xsd/netconvertConfiguration.xsd">

    <input>
        <node-files value="./network_files/nd/nd.nod.xml"/>
        <edge-files value="./network_files/nd/nd.edg-modified.xml"/>
    </input>

    <output>
        <output-file value="./network_files/net.net.xml"/>
    </output>

</configuration>
-->

<net version="1.16" junctionCornerDetail="5" limitTurnSpeed="5.50" xmlns:xsi="http://www.w3.org/2001/XMLSchema-instance" xsi:noNamespaceSchemaLocation="http://sumo.dlr.de/xsd/net_file.xsd">

    <location netOffset="100.00,300.00" convBoundary="0.00,0.00,400.00,300.00" origBoundary="-100.00,-300.00,300.00,0.00" projParameter="!"/>

    <edge id=":A_0" function="internal">
        <lane id=":A_0_0" index="0" speed="6.08" length="7.74" shape="103.20,301.60 101.10,301.30 99.60,300.40 98.70,298.90 98.40,296.80"/>
    </edge>
    <edge id=":A_1" function="internal">
        <lane id=":A_1_0" index="0" speed="3.90" length="2.58" shape="101.60,296.80 101.70,297.50 102.00,298.00 102.50,298.30 103.20,298.40"/>
    </edge>
    <edge id=":B_0" function="internal">
        <lane id=":B_0_0" index="0" speed="3.90" length="2.58" shape="398.40,103.20 398.30,102.50 398.00,102.00 397.50,101.70 396.80,101.60"/>
    </edge>
    <edge id=":B_1" function="internal">
        <lane id=":B_1_0" index="0" speed="6.08" length="7.74" shape="396.80,98.40 398.90,98.70 400.40,99.60 401.30,101.10 401.60,103.20"/>
    </edge>
    <edge id=":C_0" function="internal">
        <lane id=":C_0_0" index="0" speed="3.90" length="2.58" shape="298.40,3.20 298.30,2.50 298.00,2.00 297.50,1.70 296.80,1.60"/>
    </edge>
    <edge id=":C_1" function="internal">
        <lane id=":C_1_0" index="0" speed="6.08" length="7.74" shape="296.80,-1.60 298.90,-1.30 300.40,-0.40 301.30,1.10 301.60,3.20"/>
    </edge>
    <edge id=":D_0" function="internal">
        <lane id=":D_0_0" index="0" speed="6.49" length="14.35" shape="7.73,201.60 3.17,201.09 1.08,199.55 1.47,196.99 4.33,193.41"/>
    </edge>
    <edge id=":D_1" function="internal">
        <lane id=":D_1_0" index="0" speed="4.12" length="4.78" shape="6.59,195.67 5.64,196.86 5.51,197.72 6.21,198.23 7.73,198.40"/>
    </edge>
    <edge id=":E_0" function="internal">
        <lane id=":E_0_0" index="0" speed="6.51" length="9.03" shape="98.40,207.20 98.05,204.75 97.00,203.00 95.25,201.95 92.80,201.60"/>
    </edge>
    <edge id=":E_1" function="internal">
        <lane id=":E_1_0" index="0" speed="60.00" length="14.40" shape="98.40,207.20 98.40,192.80"/>
    </edge>
    <edge id=":E_2" function="internal">
        <lane id=":E_2_0" index="0" speed="8.00" length="4.07" shape="98.40,207.20 98.95,203.35 99.04,203.20"/>
    </edge>
    <edge id=":E_3" function="internal">
        <lane id=":E_3_0" index="0" speed="3.65" length="1.44" shape="98.40,207.20 99.20,206.00"/>
    </edge>
    <edge id=":E_16" function="internal">
        <lane id=":E_16_0" index="0" speed="8.00" length="10.13" shape="99.04,203.20 100.60,200.60 103.35,198.95 107.20,198.40"/>
    </edge>
    <edge id=":E_17" function="internal">
        <lane id=":E_17_0" index="0" speed="3.65" length="3.23" shape="99.20,206.00 100.00,205.60 100.80,206.00 101.60,207.20"/>
    </edge>
    <edge id=":E_4" function="internal">
        <lane id=":E_4_0" index="0" speed="6.51" length="9.03" shape="107.20,201.60 104.75,201.95 103.00,203.00 101.95,204.75 101.60,207.20"/>
    </edge>
    <edge id=":E_5" function="internal">
        <lane id=":E_5_0" index="0" speed="60.00" length="14.40" shape="107.20,201.60 92.80,201.60"/>
    </edge>
    <edge id=":E_6" function="internal">
        <lane id=":E_6_0" index="0" speed="8.00" length="14.19" shape="107.20,201.60 103.35,201.05 100.60,199.40 98.95,196.65 98.40,192.80"/>
    </edge>
    <edge id=":E_7" function="internal">
        <lane id=":E_7_0" index="0" speed="3.65" length="4.67" shape="107.20,201.60 106.00,200.80 105.60,200.00 106.00,199.20 107.20,198.40"/>
    </edge>
    <edge id=":E_8" function="internal">
        <lane id=":E_8_0" index="0" speed="6.51" length="9.03" shape="101.60,192.80 101.95,195.25 103.00,197.00 104.75,198.05 107.20,198.40"/>
    </edge>
    <edge id=":E_9" function="internal">
        <lane id=":E_9_0" index="0" speed="60.00" length="14.40" shape="101.60,192.80 101.60,207.20"/>
    </edge>
    <edge id=":E_10" function="internal">
        <lane id=":E_10_0" index="0" speed="8.00" length="4.07" shape="101.60,192.80 101.05,196.65 100.96,196.80"/>
    </edge>
    <edge id=":E_11" function="internal">
        <lane id=":E_11_0" index="0" speed="3.65" length="1.44" shape="101.60,192.80 100.80,194.00"/>
    </edge>
    <edge id=":E_18" function="internal">
        <lane id=":E_18_0" index="0" speed="8.00" length="10.13" shape="100.96,196.80 99.40,199.40 96.65,201.05 92.80,201.60"/>
    </edge>
    <edge id=":E_19" function="internal">
        <lane id=":E_19_0" index="0" speed="3.65" length="3.23" shape="100.80,194.00 100.00,194.40 99.20,194.00 98.40,192.80"/>
    </edge>
    <edge id=":E_12" function="internal">
        <lane id=":E_12_0" index="0" speed="6.51" length="9.03" shape="92.80,198.40 95.25,198.05 97.00,197.00 98.05,195.25 98.40,192.80"/>
    </edge>
    <edge id=":E_13" function="internal">
        <lane id=":E_13_0" index="0" speed="60.00" length="14.40" shape="92.80,198.40 107.20,198.40"/>
    </edge>
    <edge id=":E_14" function="internal">
        <lane id=":E_14_0" index="0" speed="8.00" length="14.19" shape="92.80,198.40 96.65,198.95 99.40,200.60 101.05,203.35 101.60,207.20"/>
    </edge>
    <edge id=":E_15" function="internal">
        <lane id=":E_15_0" index="0" speed="3.65" length="4.67" shape="92.80,198.40 94.00,199.20 94.40,200.00 94.00,200.80 92.80,201.60"/>
    </edge>
    <edge id=":F_0" function="internal">
        <lane id=":F_0_0" index="0" speed="8.00" length="14.19" shape="198.40,210.40 197.85,206.55 196.20,203.80 193.45,202.15 189.60,201.60"/>
    </edge>
    <edge id=":F_1" function="internal">
        <lane id=":F_1_0" index="0" speed="60.00" length="20.94" shape="198.40,210.40 197.90,206.45 196.80,201.88 195.70,196.37 195.20,189.60"/>
        <lane id=":F_1_1" index="1" speed="60.00" length="20.94" shape="198.40,210.40 198.40,189.60"/>
    </edge>
    <edge id=":F_3" function="internal">
        <lane id=":F_3_0" index="0" speed="9.26" length="19.35" shape="198.40,210.40 199.15,205.15 201.40,201.40 205.15,199.15 210.40,198.40"/>
    </edge>
    <edge id=":F_4" function="internal">
        <lane id=":F_4_0" index="0" speed="3.65" length="4.67" shape="198.40,210.40 199.20,209.20 200.00,208.80 200.80,209.20 201.60,210.40"/>
    </edge>
    <edge id=":F_5" function="internal">
        <lane id=":F_5_0" index="0" speed="7.33" length="11.73" shape="210.40,204.80 206.55,205.15 203.80,206.20 202.15,207.95 201.60,210.40"/>
    </edge>
    <edge id=":F_6" function="internal">
        <lane id=":F_6_0" index="0" speed="60.00" length="21.09" shape="210.40,204.80 203.63,204.30 198.12,203.20 193.55,202.10 189.60,201.60"/>
    </edge>
    <edge id=":F_7" function="internal">
        <lane id=":F_7_0" index="0" speed="9.26" length="19.35" shape="210.40,201.60 205.15,200.85 201.40,198.60 199.15,194.85 198.40,189.60"/>
    </edge>
    <edge id=":F_8" function="internal">
        <lane id=":F_8_0" index="0" speed="3.65" length="2.34" shape="210.40,201.60 209.20,200.80 208.80,200.00"/>
    </edge>
    <edge id=":F_18" function="internal">
        <lane id=":F_18_0" index="0" speed="3.65" length="2.34" shape="208.80,200.00 209.20,199.20 210.40,198.40"/>
    </edge>
    <edge id=":F_9" function="internal">
        <lane id=":F_9_0" index="0" speed="6.51" length="9.03" shape="204.80,189.60 205.15,192.05 206.20,193.80 207.95,194.85 210.40,195.20"/>
    </edge>
    <edge id=":F_10" function="internal">
        <lane id=":F_10_0" index="0" speed="60.00" length="21.09" shape="204.80,189.60 204.30,196.37 203.20,201.88 202.10,206.45 201.60,210.40"/>
    </edge>
    <edge id=":F_11" function="internal">
        <lane id=":F_11_0" index="0" speed="9.26" length="2.51" shape="201.60,189.60 201.24,192.09"/>
    </edge>
    <edge id=":F_12" function="internal">
        <lane id=":F_12_0" index="0" speed="3.65" length="1.30" shape="201.60,189.60 200.88,190.68"/>
    </edge>
    <edge id=":F_19" function="internal">
        <lane id=":F_19_0" index="0" speed="9.26" length="16.84" shape="201.24,192.09 200.85,194.85 198.60,198.60 194.85,200.85 189.60,201.60"/>
    </edge>
    <edge id=":F_20" function="internal">
        <lane id=":F_20_0" index="0" speed="3.65" length="3.37" shape="200.88,190.68 200.80,190.80 200.00,191.20 199.20,190.80 198.40,189.60"/>
    </edge>
    <edge id=":F_13" function="internal">
        <lane id=":F_13_0" index="0" speed="7.33" length="11.73" shape="189.60,198.40 192.05,197.85 193.80,196.20 194.85,193.45 195.20,189.60"/>
    </edge>
    <edge id=":F_14" function="internal">
        <lane id=":F_14_0" index="0" speed="60.00" length="20.94" shape="189.60,198.40 193.55,197.90 198.12,196.80 203.63,195.70 210.40,195.20"/>
        <lane id=":F_14_1" index="1" speed="60.00" length="20.94" shape="189.60,198.40 210.40,198.40"/>
    </edge>
    <edge id=":F_16" function="internal">
        <lane id=":F_16_0" index="0" speed="9.26" length="19.35" shape="189.60,198.40 194.85,199.15 198.60,201.40 200.85,205.15 201.60,210.40"/>
    </edge>
    <edge id=":F_17" function="internal">
        <lane id=":F_17_0" index="0" speed="3.65" length="4.67" shape="189.60,198.40 190.80,199.20 191.20,200.00 190.80,200.80 189.60,201.60"/>
    </edge>
    <edge id=":G_0" function="internal">
        <lane id=":G_0_0" index="0" speed="60.00" length="14.62" shape="307.20,201.60 303.88,202.10 300.89,203.20 297.46,204.30 292.80,204.80"/>
        <lane id=":G_0_1" index="1" speed="60.00" length="14.62" shape="307.20,201.60 292.80,201.60"/>
    </edge>
    <edge id=":G_2" function="internal">
        <lane id=":G_2_0" index="0" speed="8.67" length="5.00" shape="307.20,201.60 303.35,200.85 302.52,200.17"/>
    </edge>
    <edge id=":G_3" function="internal">
        <lane id=":G_3_0" index="0" speed="3.65" length="1.44" shape="307.20,201.60 306.00,200.80"/>
    </edge>
    <edge id=":G_10" function="internal">
        <lane id=":G_10_0" index="0" speed="8.67" length="11.85" shape="302.52,200.17 300.60,198.60 298.95,194.85 298.40,189.60"/>
    </edge>
    <edge id=":G_11" function="internal">
        <lane id=":G_11_0" index="0" speed="3.65" length="3.23" shape="306.00,200.80 305.60,200.00 306.00,199.20 307.20,198.40"/>
    </edge>
    <edge id=":G_4" function="internal">
        <lane id=":G_4_0" index="0" speed="7.33" length="11.73" shape="301.60,189.60 301.95,193.45 303.00,196.20 304.75,197.85 307.20,198.40"/>
    </edge>
    <edge id=":G_5" function="internal">
        <lane id=":G_5_0" index="0" speed="8.67" length="16.85" shape="301.60,189.60 301.05,194.85 299.40,198.60 296.65,200.85 292.80,201.60"/>
    </edge>
    <edge id=":G_6" function="internal">
        <lane id=":G_6_0" index="0" speed="3.65" length="4.67" shape="301.60,189.60 300.80,190.80 300.00,191.20 299.20,190.80 298.40,189.60"/>
    </edge>
    <edge id=":G_7" function="internal">
        <lane id=":G_7_0" index="0" speed="6.51" length="9.03" shape="292.80,195.20 295.25,194.85 297.00,193.80 298.05,192.05 298.40,189.60"/>
    </edge>
    <edge id=":G_8" function="internal">
        <lane id=":G_8_0" index="0" speed="60.00" length="14.83" shape="292.80,195.20 297.46,195.70 300.89,196.80 303.88,197.90 307.20,198.40"/>
    </edge>
    <edge id=":G_9" function="internal">
        <lane id=":G_9_0" index="0" speed="3.65" length="1.44" shape="292.80,198.40 294.00,199.20"/>
    </edge>
    <edge id=":G_12" function="internal">
        <lane id=":G_12_0" index="0" speed="3.65" length="3.23" shape="294.00,199.20 294.40,200.00 294.00,200.80 292.80,201.60"/>
    </edge>
    <edge id=":H_0" function="internal">
        <lane id=":H_0_0" index="0" speed="12.76" length="24.37" shape="401.60,192.80 400.56,196.90 397.45,201.01 392.27,205.14 385.01,209.28"/>
    </edge>
    <edge id=":H_1" function="internal">
        <lane id=":H_1_0" index="0" speed="10.09" length="4.60" shape="401.60,192.80 400.40,196.65 399.95,196.99"/>
    </edge>
    <edge id=":H_2" function="internal">
        <lane id=":H_2_0" index="0" speed="3.65" length="1.44" shape="401.60,192.80 400.80,194.00"/>
    </edge>
    <edge id=":H_9" function="internal">
        <lane id=":H_9_0" index="0" speed="10.09" length="18.57" shape="399.95,196.99 396.81,199.40 390.83,201.05 382.44,201.60"/>
    </edge>
    <edge id=":H_10" function="internal">
        <lane id=":H_10_0" index="0" speed="3.65" length="3.23" shape="400.80,194.00 400.00,194.40 399.20,194.00 398.40,192.80"/>
    </edge>
    <edge id=":H_3" function="internal">
        <lane id=":H_3_0" index="0" speed="8.99" length="18.20" shape="382.44,198.40 389.43,198.05 394.41,197.00 397.40,195.25 398.40,192.80"/>
    </edge>
    <edge id=":H_4" function="internal">
        <lane id=":H_4_0" index="0" speed="6.26" length="15.29" shape="382.44,198.40 386.25,199.71 388.14,202.80 387.83,206.41 385.01,209.28"/>
    </edge>
    <edge id=":H_5" function="internal">
        <lane id=":H_5_0" index="0" speed="3.65" length="4.67" shape="382.44,198.40 383.64,199.20 384.04,200.00 383.64,200.80 382.44,201.60"/>
    </edge>
    <edge id=":H_6" function="internal">
        <lane id=":H_6_0" index="0" speed="5.60" length="11.85" shape="383.58,206.42 387.13,204.31 388.12,202.80 386.56,201.90 382.44,201.60"/>
    </edge>
    <edge id=":H_7" function="internal">
        <lane id=":H_7_0" index="0" speed="11.84" length="20.87" shape="383.58,206.42 390.07,202.79 394.70,199.31 397.47,195.98 398.40,192.80"/>
    </edge>
    <edge id=":H_8" function="internal">
        <lane id=":H_8_0" index="0" speed="3.65" length="1.44" shape="383.58,206.42 385.01,206.60"/>
    </edge>
    <edge id=":H_11" function="internal">
        <lane id=":H_11_0" index="0" speed="3.65" length="3.23" shape="385.01,206.60 385.73,207.14 385.73,208.03 385.01,209.28"/>
    </edge>
    <edge id=":I_0" function="internal">
        <lane id=":I_0_0" index="0" speed="5.47" length="9.74" shape="98.40,111.73 98.05,108.63 97.01,107.22 95.27,107.48 92.84,109.42"/>
    </edge>
    <edge id=":I_1" function="internal">
        <lane id=":I_1_0" index="0" speed="15.85" length="23.49" shape="98.40,111.73 98.95,105.76 100.59,100.24 103.33,95.18 107.16,90.58"/>
    </edge>
    <edge id=":I_2" function="internal">
        <lane id=":I_2_0" index="0" speed="9.73" length="21.49" shape="98.40,111.73 99.23,105.90 101.73,101.73 105.90,99.23 111.73,98.40"/>
    </edge>
    <edge id=":I_3" function="internal">
        <lane id=":I_3_0" index="0" speed="3.65" length="4.67" shape="98.40,111.73 99.20,110.53 100.00,110.13 100.80,110.53 101.60,111.73"/>
    </edge>
    <edge id=":I_4" function="internal">
        <lane id=":I_4_0" index="0" speed="8.54" length="16.33" shape="111.73,101.60 107.30,102.23 104.13,104.13 102.23,107.30 101.60,111.73"/>
    </edge>
    <edge id=":I_5" function="internal">
        <lane id=":I_5_0" index="0" speed="14.99" length="20.98" shape="111.73,101.60 106.40,102.09 101.47,103.56 96.95,106.00 92.84,109.42"/>
    </edge>
    <edge id=":I_6" function="internal">
        <lane id=":I_6_0" index="0" speed="7.42" length="19.31" shape="111.73,101.60 105.59,100.91 102.79,98.84 103.31,95.40 107.16,90.58"/>
    </edge>
    <edge id=":I_7" function="internal">
        <lane id=":I_7_0" index="0" speed="3.65" length="4.67" shape="111.73,101.60 110.53,100.80 110.13,100.00 110.53,99.20 111.73,98.40"/>
    </edge>
    <edge id=":I_8" function="internal">
        <lane id=":I_8_0" index="0" speed="5.47" length="9.74" shape="109.42,92.84 107.48,95.27 107.22,97.01 108.63,98.05 111.73,98.40"/>
    </edge>
    <edge id=":I_9" function="internal">
        <lane id=":I_9_0" index="0" speed="14.99" length="20.98" shape="109.42,92.84 106.00,96.95 103.56,101.47 102.09,106.40 101.60,111.73"/>
    </edge>
    <edge id=":I_10" function="internal">
        <lane id=":I_10_0" index="0" speed="60.00" length="23.45" shape="109.42,92.84 92.84,109.42"/>
    </edge>
    <edge id=":I_11" function="internal">
        <lane id=":I_11_0" index="0" speed="3.65" length="1.44" shape="109.42,92.84 108.01,93.12"/>
    </edge>
    <edge id=":I_16" function="internal">
        <lane id=":I_16_0" index="0" speed="3.65" length="3.23" shape="108.01,93.12 107.16,92.84 106.88,91.99 107.16,90.58"/>
    </edge>
    <edge id=":I_12" function="internal">
        <lane id=":I_12_0" index="0" speed="60.00" length="23.45" shape="90.58,107.16 107.16,90.58"/>
    </edge>
    <edge id=":I_13" function="internal">
        <lane id=":I_13_0" index="0" speed="15.85" length="6.48" shape="90.58,107.16 95.18,103.33 95.61,103.10"/>
    </edge>
    <edge id=":I_14" function="internal">
        <lane id=":I_14_0" index="0" speed="7.42" length="6.00" shape="90.58,107.16 95.27,103.42"/>
    </edge>
    <edge id=":I_15" function="internal">
        <lane id=":I_15_0" index="0" speed="3.65" length="1.44" shape="90.58,107.16 91.99,106.88"/>
    </edge>
    <edge id=":I_17" function="internal">
        <lane id=":I_17_0" index="0" speed="15.85" length="17.01" shape="95.61,103.10 100.24,100.59 105.76,98.95 111.73,98.40"/>
    </edge>
    <edge id=":I_18" function="internal">
        <lane id=":I_18_0" index="0" speed="7.42" length="13.30" shape="95.27,103.42 95.40,103.31 98.84,102.79 100.91,105.59 101.60,111.73"/>
    </edge>
    <edge id=":I_19" function="internal">
        <lane id=":I_19_0" index="0" speed="3.65" length="3.23" shape="91.99,106.88 92.84,107.16 93.12,108.01 92.84,109.42"/>
    </edge>
    <edge id=":J_0" function="internal">
        <lane id=":J_0_0" index="0" speed="6.51" length="9.03" shape="195.20,107.20 194.85,104.75 193.80,103.00 192.05,101.95 189.60,101.60"/>
    </edge>
    <edge id=":J_1" function="internal">
        <lane id=":J_1_0" index="0" speed="8.67" length="16.85" shape="198.40,107.20 199.15,103.35 201.40,100.60 205.15,98.95 210.40,98.40"/>
    </edge>
    <edge id=":J_2" function="internal">
        <lane id=":J_2_0" index="0" speed="3.65" length="4.67" shape="198.40,107.20 199.20,106.00 200.00,105.60 200.80,106.00 201.60,107.20"/>
    </edge>
    <edge id=":J_3" function="internal">
        <lane id=":J_3_0" index="0" speed="6.51" length="9.03" shape="210.40,101.60 207.95,101.95 206.20,103.00 205.15,104.75 204.80,107.20"/>
    </edge>
    <edge id=":J_4" function="internal">
        <lane id=":J_4_0" index="0" speed="60.00" length="20.80" shape="210.40,101.60 189.60,101.60"/>
    </edge>
    <edge id=":J_5" function="internal">
        <lane id=":J_5_0" index="0" speed="3.65" length="4.67" shape="210.40,101.60 209.20,100.80 208.80,100.00 209.20,99.20 210.40,98.40"/>
    </edge>
    <edge id=":J_6" function="internal">
        <lane id=":J_6_0" index="0" speed="60.00" length="20.80" shape="189.60,98.40 210.40,98.40"/>
    </edge>
    <edge id=":J_7" function="internal">
        <lane id=":J_7_0" index="0" speed="8.67" length="16.85" shape="189.60,98.40 194.85,98.95 198.60,100.60 200.85,103.35 201.60,107.20"/>
    </edge>
    <edge id=":J_8" function="internal">
        <lane id=":J_8_0" index="0" speed="3.65" length="4.67" shape="189.60,98.40 190.80,99.20 191.20,100.00 190.80,100.80 189.60,101.60"/>
    </edge>
    <edge id=":K_0" function="internal">
        <lane id=":K_0_0" index="0" speed="6.51" length="9.03" shape="298.40,107.20 298.05,104.75 297.00,103.00 295.25,101.95 292.80,101.60"/>
    </edge>
    <edge id=":K_1" function="internal">
        <lane id=":K_1_0" index="0" speed="60.00" length="14.40" shape="298.40,107.20 298.40,92.80"/>
    </edge>
    <edge id=":K_2" function="internal">
        <lane id=":K_2_0" index="0" speed="8.00" length="4.07" shape="298.40,107.20 298.95,103.35 299.04,103.20"/>
    </edge>
    <edge id=":K_3" function="internal">
        <lane id=":K_3_0" index="0" speed="3.65" length="1.44" shape="298.40,107.20 299.20,106.00"/>
    </edge>
    <edge id=":K_16" function="internal">
        <lane id=":K_16_0" index="0" speed="8.00" length="10.13" shape="299.04,103.20 300.60,100.60 303.35,98.95 307.20,98.40"/>
    </edge>
    <edge id=":K_17" function="internal">
        <lane id=":K_17_0" index="0" speed="3.65" length="3.23" shape="299.20,106.00 300.00,105.60 300.80,106.00 301.60,107.20"/>
    </edge>
    <edge id=":K_4" function="internal">
        <lane id=":K_4_0" index="0" speed="6.51" length="9.03" shape="307.20,101.60 304.75,101.95 303.00,103.00 301.95,104.75 301.60,107.20"/>
    </edge>
    <edge id=":K_5" function="internal">
        <lane id=":K_5_0" index="0" speed="60.00" length="14.40" shape="307.20,101.60 292.80,101.60"/>
    </edge>
    <edge id=":K_6" function="internal">
        <lane id=":K_6_0" index="0" speed="8.00" length="14.19" shape="307.20,101.60 303.35,101.05 300.60,99.40 298.95,96.65 298.40,92.80"/>
    </edge>
    <edge id=":K_7" function="internal">
        <lane id=":K_7_0" index="0" speed="3.65" length="4.67" shape="307.20,101.60 306.00,100.80 305.60,100.00 306.00,99.20 307.20,98.40"/>
    </edge>
    <edge id=":K_8" function="internal">
        <lane id=":K_8_0" index="0" speed="6.51" length="9.03" shape="301.60,92.80 301.95,95.25 303.00,97.00 304.75,98.05 307.20,98.40"/>
    </edge>
    <edge id=":K_9" function="internal">
        <lane id=":K_9_0" index="0" speed="60.00" length="14.40" shape="301.60,92.80 301.60,107.20"/>
    </edge>
    <edge id=":K_10" function="internal">
        <lane id=":K_10_0" index="0" speed="8.00" length="4.07" shape="301.60,92.80 301.05,96.65 300.96,96.80"/>
    </edge>
    <edge id=":K_11" function="internal">
        <lane id=":K_11_0" index="0" speed="3.65" length="1.44" shape="301.60,92.80 300.80,94.00"/>
    </edge>
    <edge id=":K_18" function="internal">
        <lane id=":K_18_0" index="0" speed="8.00" length="10.13" shape="300.96,96.80 299.40,99.40 296.65,101.05 292.80,101.60"/>
    </edge>
    <edge id=":K_19" function="internal">
        <lane id=":K_19_0" index="0" speed="3.65" length="3.23" shape="300.80,94.00 300.00,94.40 299.20,94.00 298.40,92.80"/>
    </edge>
    <edge id=":K_12" function="internal">
        <lane id=":K_12_0" index="0" speed="6.51" length="9.03" shape="292.80,98.40 295.25,98.05 297.00,97.00 298.05,95.25 298.40,92.80"/>
    </edge>
    <edge id=":K_13" function="internal">
        <lane id=":K_13_0" index="0" speed="60.00" length="14.40" shape="292.80,98.40 307.20,98.40"/>
    </edge>
    <edge id=":K_14" function="internal">
        <lane id=":K_14_0" index="0" speed="8.00" length="14.19" shape="292.80,98.40 296.65,98.95 299.40,100.60 301.05,103.35 301.60,107.20"/>
    </edge>
    <edge id=":K_15" function="internal">
        <lane id=":K_15_0" index="0" speed="3.65" length="4.67" shape="292.80,98.40 294.00,99.20 294.40,100.00 294.00,100.80 292.80,101.60"/>
    </edge>
    <edge id=":L_0" function="internal">
        <lane id=":L_0_0" index="0" speed="21.50" length="16.80" shape="208.92,297.33 205.22,298.94 201.06,300.30 196.80,301.25 192.80,301.60"/>
    </edge>
    <edge id=":L_1" function="internal">
        <lane id=":L_1_0" index="0" speed="7.44" length="5.30" shape="208.92,297.33 204.32,298.89 203.89,298.82"/>
    </edge>
    <edge id=":L_2" function="internal">
        <lane id=":L_2_0" index="0" speed="3.65" length="1.44" shape="208.92,297.33 207.49,297.15"/>
    </edge>
    <edge id=":L_9" function="internal">
        <lane id=":L_9_0" index="0" speed="7.44" length="11.10" shape="203.89,298.82 201.03,298.33 199.06,295.64 198.40,290.82"/>
    </edge>
    <edge id=":L_10" function="internal">
        <lane id=":L_10_0" index="0" speed="3.65" length="3.23" shape="207.49,297.15 206.78,296.61 206.78,295.72 207.49,294.46"/>
    </edge>
    <edge id=":L_3" function="internal">
        <lane id=":L_3_0" index="0" speed="5.74" length="9.18" shape="201.60,290.82 201.97,293.52 203.07,295.03 204.91,295.34 207.49,294.46"/>
    </edge>
    <edge id=":L_4" function="internal">
        <lane id=":L_4_0" index="0" speed="8.42" length="15.82" shape="201.60,290.82 201.05,295.54 199.40,298.91 196.65,300.93 192.80,301.60"/>
    </edge>
    <edge id=":L_5" function="internal">
        <lane id=":L_5_0" index="0" speed="3.65" length="4.67" shape="201.60,290.82 200.80,292.02 200.00,292.42 199.20,292.02 198.40,290.82"/>
    </edge>
    <edge id=":L_6" function="internal">
        <lane id=":L_6_0" index="0" speed="7.02" length="10.67" shape="192.80,298.40 195.25,297.93 197.00,296.51 198.05,294.14 198.40,290.82"/>
    </edge>
    <edge id=":L_7" function="internal">
        <lane id=":L_7_0" index="0" speed="20.55" length="15.33" shape="192.80,298.40 196.58,298.10 200.34,297.27 204.01,296.02 207.49,294.46"/>
    </edge>
    <edge id=":L_8" function="internal">
        <lane id=":L_8_0" index="0" speed="3.65" length="1.44" shape="192.80,298.40 194.00,299.20"/>
    </edge>
    <edge id=":L_11" function="internal">
        <lane id=":L_11_0" index="0" speed="3.65" length="3.23" shape="194.00,299.20 194.40,300.00 194.00,300.80 192.80,301.60"/>
    </edge>
    <edge id=":M_0" function="internal">
        <lane id=":M_0_0" index="0" speed="4.20" length="1.26" shape="201.33,1.60 201.01,1.63 200.71,1.72 200.44,1.86 200.19,2.07"/>
    </edge>
    <edge id=":M_1" function="internal">
        <lane id=":M_1_0" index="0" speed="6.63" length="3.77" shape="197.93,-0.19 198.67,-0.81 199.48,-1.25 200.37,-1.51 201.33,-1.60"/>
    </edge>

    <edge id="AE" from="A" to="E" priority="-1" length="70.00">
        <lane id="AE_0" index="0" speed="60.00" length="70.00" shape="98.40,296.80 98.40,207.20"/>
    </edge>
    <edge id="AL" from="A" to="L" priority="-1" length="90.00">
        <lane id="AL_0" index="0" speed="60.00" length="90.00" shape="103.20,298.40 192.80,298.40"/>
    </edge>
    <edge id="BH" from="B" to="H" priority="-1" length="80.00">
        <lane id="BH_0" index="0" speed="60.00" length="80.00" shape="401.60,103.20 401.60,192.80"/>
    </edge>
    <edge id="BK" from="B" to="K" priority="-1" length="90.00">
        <lane id="BK_0" index="0" speed="60.00" length="90.00" shape="396.80,101.60 307.20,101.60"/>
    </edge>
    <edge id="CK" from="C" to="K" priority="-1" length="80.00">
        <lane id="CK_0" index="0" speed="60.00" length="80.00" shape="301.60,3.20 301.60,92.80"/>
    </edge>
    <edge id="CM" from="C" to="M" priority="-1" length="110.00">
        <lane id="CM_0" index="0" speed="60.00" length="110.00" shape="296.80,1.60 201.33,1.60"/>
    </edge>
    <edge id="DE" from="D" to="E" priority="-1" length="90.00">
        <lane id="DE_0" index="0" speed="60.00" length="90.00" shape="7.73,198.40 92.80,198.40"/>
    </edge>
    <edge id="DI" from="D" to="I" priority="-1" length="120.00">
        <lane id="DI_0" index="0" speed="60.00" length="120.00" shape="4.33,193.41 90.58,107.16"/>
    </edge>
    <edge id="EA" from="E" to="A" priority="-1" length="70.00">
        <lane id="EA_0" index="0" speed="60.00" length="70.00" shape="101.60,207.20 101.60,296.80"/>
    </edge>
    <edge id="ED" from="E" to="D" priority="-1" length="90.00">
        <lane id="ED_0" index="0" speed="60.00" length="90.00" shape="92.80,201.60 7.73,201.60"/>
    </edge>
    <edge id="EF" from="E" to="F" priority="-1" length="30.00">
        <lane id="EF_0" index="0" speed="60.00" length="30.00" shape="107.20,198.40 189.60,198.40"/>
    </edge>
    <edge id="EI" from="E" to="I" priority="-1" length="90.00">
        <lane id="EI_0" index="0" speed="60.00" length="90.00" shape="98.40,192.80 98.40,111.73"/>
    </edge>
    <edge id="FE" from="F" to="E" priority="-1" length="30.00">
        <lane id="FE_0" index="0" speed="60.00" length="30.00" shape="189.60,201.60 107.20,201.60"/>
    </edge>
    <edge id="FG" from="F" to="G" priority="-1" length="50.00">
        <lane id="FG_0" index="0" speed="60.00" length="50.00" shape="210.40,195.20 292.80,195.20"/>
        <lane id="FG_1" index="1" speed="60.00" length="50.00" shape="210.40,198.40 292.80,198.40"/>
    </edge>
    <edge id="FJ" from="F" to="J" priority="-1" length="130.00">
        <lane id="FJ_0" index="0" speed="60.00" length="130.00" shape="195.20,189.60 195.20,107.20"/>
        <lane id="FJ_1" index="1" speed="60.00" length="130.00" shape="198.40,189.60 198.40,107.20"/>
    </edge>
    <edge id="FL" from="F" to="L" priority="-1" length="70.00">
        <lane id="FL_0" index="0" speed="60.00" length="70.00" shape="201.60,210.40 201.60,290.82"/>
    </edge>
    <edge id="GF" from="G" to="F" priority="-1" length="50.00">
        <lane id="GF_0" index="0" speed="60.00" length="50.00" shape="292.80,204.80 210.40,204.80"/>
        <lane id="GF_1" index="1" speed="60.00" length="50.00" shape="292.80,201.60 210.40,201.60"/>
    </edge>
    <edge id="GH" from="G" to="H" priority="-1" length="50.00">
        <lane id="GH_0" index="0" speed="60.00" length="50.00" shape="307.20,198.40 382.44,198.40"/>
    </edge>
    <edge id="GK" from="G" to="K" priority="-1" length="90.00">
        <lane id="GK_0" index="0" speed="60.00" length="90.00" shape="298.40,189.60 298.40,107.20"/>
    </edge>
    <edge id="HB" from="H" to="B" priority="-1" length="80.00">
        <lane id="HB_0" index="0" speed="60.00" length="80.00" shape="398.40,192.80 398.40,103.20"/>
    </edge>
    <edge id="HG" from="H" to="G" priority="-1" length="50.00">
        <lane id="HG_0" index="0" speed="60.00" length="50.00" shape="382.44,201.60 307.20,201.60"/>
    </edge>
    <edge id="HL" from="H" to="L" priority="-1" length="140.00">
        <lane id="HL_0" index="0" speed="60.00" length="140.00" shape="385.01,209.28 208.92,297.33"/>
    </edge>
    <edge id="ID" from="I" to="D" priority="-1" length="120.00">