<?xml version="1.0" encoding="UTF-8"?>

<!-- generated on 2023-06-15 23:43:13 by Eclipse SUMO netconvert Version 1.16.0
<configuration xmlns:xsi="http://www.w3.org/2001/XMLSchema-instance" xsi:noNamespaceSchemaLocation="http://sumo.dlr.de/xsd/netconvertConfiguration.xsd">

    <input>
        <node-files value="65-PIN3/src/network_files/nd/nd.nod.xml"/>
        <edge-files value="65-PIN3/src/network_files/nd/nd.edg-modified.xml"/>
    </input>

    <output>
        <output-file value="65-PIN3/src/network_files/net.net.xml"/>
    </output>

</configuration>
-->

<net version="1.16" junctionCornerDetail="5" limitTurnSpeed="5.50" xmlns:xsi="http://www.w3.org/2001/XMLSchema-instance" xsi:noNamespaceSchemaLocation="http://sumo.dlr.de/xsd/net_file.xsd">

    <location netOffset="100.00,300.00" convBoundary="0.00,0.00,400.00,300.00" origBoundary="-100.00,-300.00,300.00,0.00" projParameter="!"/>

    <edge id=":A_0" function="internal">
        <lane id=":A_0_0" index="0" speed="6.08" length="7.74" shape="103.20,301.60 101.10,301.30 99.60,300.40 98.70,298.90 98.40,296.80"/>
    </edge>
    <edge id=":A_1" function="internal">
        <lane id=":A_1_0" index="0" speed="3.90" length="2.58" shape="101.60,296.80 101.70,297.50 102.00,298.00 102.50,298.30 103.20,298.40"/>
    </edge>
    <edge id=":B_0" function="internal">
        <lane id=":B_0_0" index="0" speed="5.47" length="9.74" shape="398.40,111.73 398.05,108.63 397.01,107.22 395.27,107.48 392.84,109.42"/>
    </edge>
    <edge id=":B_1" function="internal">
        <lane id=":B_1_0" index="0" speed="8.54" length="16.33" shape="398.40,111.73 397.77,107.30 395.87,104.13 392.70,102.23 388.27,101.60"/>
    </edge>
    <edge id=":B_2" function="internal">
        <lane id=":B_2_0" index="0" speed="14.99" length="20.98" shape="398.40,111.73 397.91,106.40 396.44,101.47 394.00,96.95 390.58,92.84"/>
    </edge>
    <edge id=":B_3" function="internal">
        <lane id=":B_3_0" index="0" speed="3.65" length="1.44" shape="398.40,111.73 399.20,110.53"/>
    </edge>
    <edge id=":B_16" function="internal">
        <lane id=":B_16_0" index="0" speed="3.65" length="3.23" shape="399.20,110.53 400.00,110.13 400.80,110.53 401.60,111.73"/>
    </edge>
    <edge id=":B_4" function="internal">
        <lane id=":B_4_0" index="0" speed="15.85" length="23.49" shape="392.84,90.58 396.67,95.18 399.41,100.24 401.05,105.76 401.60,111.73"/>
    </edge>
    <edge id=":B_5" function="internal">
        <lane id=":B_5_0" index="0" speed="9.73" length="7.17" shape="392.84,90.58 396.37,95.29 396.68,96.53"/>
    </edge>
    <edge id=":B_6" function="internal">
        <lane id=":B_6_0" index="0" speed="7.42" length="7.63" shape="392.84,90.58 396.69,95.40 396.91,96.84"/>
    </edge>
    <edge id=":B_7" function="internal">
        <lane id=":B_7_0" index="0" speed="3.65" length="1.44" shape="392.84,90.58 393.12,91.99"/>
    </edge>
    <edge id=":B_17" function="internal">
        <lane id=":B_17_0" index="0" speed="9.73" length="14.32" shape="396.68,96.53 397.55,100.00 396.37,104.71 392.84,109.42"/>
    </edge>
    <edge id=":B_18" function="internal">
        <lane id=":B_18_0" index="0" speed="7.42" length="11.68" shape="396.91,96.84 397.21,98.84 394.41,100.91 388.27,101.60"/>
    </edge>
    <edge id=":B_19" function="internal">
        <lane id=":B_19_0" index="0" speed="3.65" length="3.23" shape="393.12,91.99 392.84,92.84 391.99,93.12 390.58,92.84"/>
    </edge>
    <edge id=":B_8" function="internal">
        <lane id=":B_8_0" index="0" speed="5.47" length="9.74" shape="388.27,98.40 391.37,98.05 392.78,97.01 392.52,95.27 390.58,92.84"/>
    </edge>
    <edge id=":B_9" function="internal">
        <lane id=":B_9_0" index="0" speed="9.73" length="21.49" shape="388.27,98.40 394.10,99.23 398.27,101.73 400.77,105.90 401.60,111.73"/>
    </edge>
    <edge id=":B_10" function="internal">
        <lane id=":B_10_0" index="0" speed="7.42" length="19.31" shape="388.27,98.40 394.41,99.09 397.21,101.16 396.69,104.60 392.84,109.42"/>
    </edge>
    <edge id=":B_11" function="internal">
        <lane id=":B_11_0" index="0" speed="3.65" length="4.67" shape="388.27,98.40 389.47,99.20 389.87,100.00 389.47,100.80 388.27,101.60"/>
    </edge>
    <edge id=":B_12" function="internal">
        <lane id=":B_12_0" index="0" speed="5.47" length="9.74" shape="390.58,107.16 392.52,104.73 392.78,102.99 391.37,101.95 388.27,101.60"/>
    </edge>
    <edge id=":B_13" function="internal">
        <lane id=":B_13_0" index="0" speed="8.54" length="16.33" shape="390.58,107.16 393.26,103.58 394.16,100.00 393.26,96.42 390.58,92.84"/>
    </edge>
    <edge id=":B_14" function="internal">
        <lane id=":B_14_0" index="0" speed="7.42" length="19.31" shape="390.58,107.16 395.40,103.31 398.84,102.79 400.91,105.59 401.60,111.73"/>
    </edge>
    <edge id=":B_15" function="internal">
        <lane id=":B_15_0" index="0" speed="3.65" length="4.67" shape="390.58,107.16 391.99,106.88 392.84,107.16 393.12,108.01 392.84,109.42"/>
    </edge>
    <edge id=":C_0" function="internal">
        <lane id=":C_0_0" index="0" speed="7.65" length="12.89" shape="298.40,11.73 298.05,7.30 297.00,4.13 295.25,2.23 292.80,1.60"/>
    </edge>
    <edge id=":C_1" function="internal">
        <lane id=":C_1_0" index="0" speed="7.42" length="19.31" shape="298.40,11.73 299.09,5.59 301.16,2.79 304.60,3.31 309.42,7.16"/>
    </edge>
    <edge id=":C_2" function="internal">
        <lane id=":C_2_0" index="0" speed="3.65" length="4.67" shape="298.40,11.73 299.20,10.53 300.00,10.13 300.80,10.53 301.60,11.73"/>
    </edge>
    <edge id=":C_3" function="internal">
        <lane id=":C_3_0" index="0" speed="5.47" length="9.74" shape="307.16,9.42 304.73,7.48 302.99,7.22 301.95,8.63 301.60,11.73"/>
    </edge>
    <edge id=":C_4" function="internal">
        <lane id=":C_4_0" index="0" speed="13.42" length="16.74" shape="307.16,9.42 303.33,6.00 299.66,3.56 296.15,2.09 292.80,1.60"/>
    </edge>
    <edge id=":C_5" function="internal">
        <lane id=":C_5_0" index="0" speed="3.65" length="1.44" shape="307.16,9.42 306.88,8.01"/>
    </edge>
    <edge id=":C_9" function="internal">
        <lane id=":C_9_0" index="0" speed="3.65" length="3.23" shape="306.88,8.01 307.16,7.16 308.01,6.88 309.42,7.16"/>
    </edge>
    <edge id=":C_6" function="internal">
        <lane id=":C_6_0" index="0" speed="14.37" length="19.24" shape="292.80,-1.60 296.79,-1.05 300.89,0.59 305.10,3.33 309.42,7.16"/>
    </edge>
    <edge id=":C_7" function="internal">
        <lane id=":C_7_0" index="0" speed="8.94" length="4.59" shape="292.80,-1.60 296.65,-0.77 297.13,-0.33"/>
    </edge>
    <edge id=":C_8" function="internal">
        <lane id=":C_8_0" index="0" speed="3.65" length="1.44" shape="292.80,-1.60 294.00,-0.80"/>
    </edge>
    <edge id=":C_10" function="internal">
        <lane id=":C_10_0" index="0" speed="8.94" length="13.40" shape="297.13,-0.33 299.40,1.73 301.05,5.90 301.60,11.73"/>
    </edge>
    <edge id=":C_11" function="internal">
        <lane id=":C_11_0" index="0" speed="3.65" length="3.23" shape="294.00,-0.80 294.40,0.00 294.00,0.80 292.80,1.60"/>
    </edge>
    <edge id=":D_0" function="internal">
        <lane id=":D_0_0" index="0" speed="6.49" length="14.35" shape="7.73,201.60 3.17,201.09 1.08,199.55 1.47,196.99 4.33,193.41"/>
    </edge>
    <edge id=":D_1" function="internal">
        <lane id=":D_1_0" index="0" speed="4.12" length="4.78" shape="6.59,195.67 5.64,196.86 5.51,197.72 6.21,198.23 7.73,198.40"/>
    </edge>
    <edge id=":E_0" function="internal">
        <lane id=":E_0_0" index="0" speed="6.51" length="9.03" shape="98.40,207.20 98.05,204.75 97.00,203.00 95.25,201.95 92.80,201.60"/>
    </edge>
    <edge id=":E_1" function="internal">
        <lane id=":E_1_0" index="0" speed="60.00" length="14.40" shape="98.40,207.20 98.40,192.80"/>
    </edge>
    <edge id=":E_2" function="internal">
        <lane id=":E_2_0" index="0" speed="8.00" length="4.07" shape="98.40,207.20 98.95,203.35 99.04,203.20"/>
    </edge>
    <edge id=":E_3" function="internal">
        <lane id=":E_3_0" index="0" speed="3.65" length="1.44" shape="98.40,207.20 99.20,206.00"/>
    </edge>
    <edge id=":E_16" function="internal">
        <lane id=":E_16_0" index="0" speed="8.00" length="10.13" shape="99.04,203.20 100.60,200.60 103.35,198.95 107.20,198.40"/>
    </edge>
    <edge id=":E_17" function="internal">
        <lane id=":E_17_0" index="0" speed="3.65" length="3.23" shape="99.20,206.00 100.00,205.60 100.80,206.00 101.60,207.20"/>
    </edge>
    <edge id=":E_4" function="internal">
        <lane id=":E_4_0" index="0" speed="6.51" length="9.03" shape="107.20,201.60 104.75,201.95 103.00,203.00 101.95,204.75 101.60,207.20"/>
    </edge>
    <edge id=":E_5" function="internal">
        <lane id=":E_5_0" index="0" speed="60.00" length="14.40" shape="107.20,201.60 92.80,201.60"/>
    </edge>
    <edge id=":E_6" function="internal">
        <lane id=":E_6_0" index="0" speed="8.00" length="14.19" shape="107.20,201.60 103.35,201.05 100.60,199.40 98.95,196.65 98.40,192.80"/>
    </edge>
    <edge id=":E_7" function="internal">
        <lane id=":E_7_0" index="0" speed="3.65" length="4.67" shape="107.20,201.60 106.00,200.80 105.60,200.00 106.00,199.20 107.20,198.40"/>
    </edge>
    <edge id=":E_8" function="internal">
        <lane id=":E_8_0" index="0" speed="6.51" length="9.03" shape="101.60,192.80 101.95,195.25 103.00,197.00 104.75,198.05 107.20,198.40"/>
    </edge>
    <edge id=":E_9" function="internal">
        <lane id=":E_9_0" index="0" speed="60.00" length="14.40" shape="101.60,192.80 101.60,207.20"/>
    </edge>
    <edge id=":E_10" function="internal">
        <lane id=":E_10_0" index="0" speed="8.00" length="4.07" shape="101.60,192.80 101.05,196.65 100.96,196.80"/>
    </edge>
    <edge id=":E_11" function="internal">
        <lane id=":E_11_0" index="0" speed="3.65" length="1.44" shape="101.60,192.80 100.80,194.00"/>
    </edge>
    <edge id=":E_18" function="internal">
        <lane id=":E_18_0" index="0" speed="8.00" length="10.13" shape="100.96,196.80 99.40,199.40 96.65,201.05 92.80,201.60"/>
    </edge>
    <edge id=":E_19" function="internal">
        <lane id=":E_19_0" index="0" speed="3.65" length="3.23" shape="100.80,194.00 100.00,194.40 99.20,194.00 98.40,192.80"/>
    </edge>
    <edge id=":E_12" function="internal">
        <lane id=":E_12_0" index="0" speed="6.51" length="9.03" shape="92.80,198.40 95.25,198.05 97.00,197.00 98.05,195.25 98.40,192.80"/>
    </edge>
    <edge id=":E_13" function="internal">
        <lane id=":E_13_0" index="0" speed="60.00" length="14.40" shape="92.80,198.40 107.20,198.40"/>
    </edge>
    <edge id=":E_14" function="internal">
        <lane id=":E_14_0" index="0" speed="8.00" length="14.19" shape="92.80,198.40 96.65,198.95 99.40,200.60 101.05,203.35 101.60,207.20"/>
    </edge>
    <edge id=":E_15" function="internal">
        <lane id=":E_15_0" index="0" speed="3.65" length="4.67" shape="92.80,198.40 94.00,199.20 94.40,200.00 94.00,200.80 92.80,201.60"/>
    </edge>
    <edge id=":F_0" function="internal">
        <lane id=":F_0_0" index="0" speed="6.51" length="9.03" shape="198.40,207.20 198.05,204.75 197.00,203.00 195.25,201.95 192.80,201.60"/>
    </edge>
    <edge id=":F_1" function="internal">
        <lane id=":F_1_0" index="0" speed="60.00" length="14.40" shape="198.40,207.20 198.40,192.80"/>
    </edge>
    <edge id=":F_2" function="internal">
        <lane id=":F_2_0" index="0" speed="8.00" length="4.07" shape="198.40,207.20 198.95,203.35 199.04,203.20"/>
    </edge>
    <edge id=":F_3" function="internal">
        <lane id=":F_3_0" index="0" speed="3.65" length="1.44" shape="198.40,207.20 199.20,206.00"/>
    </edge>
    <edge id=":F_16" function="internal">
        <lane id=":F_16_0" index="0" speed="8.00" length="10.13" shape="199.04,203.20 200.60,200.60 203.35,198.95 207.20,198.40"/>
    </edge>
    <edge id=":F_17" function="internal">
        <lane id=":F_17_0" index="0" speed="3.65" length="3.23" shape="199.20,206.00 200.00,205.60 200.80,206.00 201.60,207.20"/>
    </edge>
    <edge id=":F_4" function="internal">
        <lane id=":F_4_0" index="0" speed="6.51" length="9.03" shape="207.20,201.60 204.75,201.95 203.00,203.00 201.95,204.75 201.60,207.20"/>
    </edge>
    <edge id=":F_5" function="internal">
        <lane id=":F_5_0" index="0" speed="60.00" length="14.40" shape="207.20,201.60 192.80,201.60"/>
    </edge>
    <edge id=":F_6" function="internal">
        <lane id=":F_6_0" index="0" speed="8.00" length="14.19" shape="207.20,201.60 203.35,201.05 200.60,199.40 198.95,196.65 198.40,192.80"/>
    </edge>
    <edge id=":F_7" function="internal">
        <lane id=":F_7_0" index="0" speed="3.65" length="4.67" shape="207.20,201.60 206.00,200.80 205.60,200.00 206.00,199.20 207.20,198.40"/>
    </edge>
    <edge id=":F_8" function="internal">
        <lane id=":F_8_0" index="0" speed="6.51" length="9.03" shape="201.60,192.80 201.95,195.25 203.00,197.00 204.75,198.05 207.20,198.40"/>
    </edge>
    <edge id=":F_9" function="internal">
        <lane id=":F_9_0" index="0" speed="60.00" length="14.40" shape="201.60,192.80 201.60,207.20"/>
    </edge>
    <edge id=":F_10" function="internal">
        <lane id=":F_10_0" index="0" speed="8.00" length="4.07" shape="201.60,192.80 201.05,196.65 200.96,196.80"/>
    </edge>
    <edge id=":F_11" function="internal">
        <lane id=":F_11_0" index="0" speed="3.65" length="1.44" shape="201.60,192.80 200.80,194.00"/>
    </edge>
    <edge id=":F_18" function="internal">
        <lane id=":F_18_0" index="0" speed="8.00" length="10.13" shape="200.96,196.80 199.40,199.40 196.65,201.05 192.80,201.60"/>
    </edge>
    <edge id=":F_19" function="internal">
        <lane id=":F_19_0" index="0" speed="3.65" length="3.23" shape="200.80,194.00 200.00,194.40 199.20,194.00 198.40,192.80"/>
    </edge>
    <edge id=":F_12" function="internal">
        <lane id=":F_12_0" index="0" speed="6.51" length="9.03" shape="192.80,198.40 195.25,198.05 197.00,197.00 198.05,195.25 198.40,192.80"/>
    </edge>
    <edge id=":F_13" function="internal">
        <lane id=":F_13_0" index="0" speed="60.00" length="14.40" shape="192.80,198.40 207.20,198.40"/>
    </edge>
    <edge id=":F_14" function="internal">
        <lane id=":F_14_0" index="0" speed="8.00" length="14.19" shape="192.80,198.40 196.65,198.95 199.40,200.60 201.05,203.35 201.60,207.20"/>
    </edge>
    <edge id=":F_15" function="internal">
        <lane id=":F_15_0" index="0" speed="3.65" length="4.67" shape="192.80,198.40 194.00,199.20 194.40,200.00 194.00,200.80 192.80,201.60"/>
    </edge>
    <edge id=":G_0" function="internal">
        <lane id=":G_0_0" index="0" speed="60.00" length="18.93" shape="311.73,201.60 292.80,201.60"/>
    </edge>
    <edge id=":G_1" function="internal">
        <lane id=":G_1_0" index="0" speed="9.73" length="5.01" shape="311.73,201.60 306.76,200.89"/>
    </edge>
    <edge id=":G_2" function="internal">
        <lane id=":G_2_0" index="0" speed="7.42" length="6.00" shape="311.73,201.60 305.76,200.93"/>
    </edge>
    <edge id=":G_3" function="internal">
        <lane id=":G_3_0" index="0" speed="3.65" length="1.44" shape="311.73,201.60 310.53,200.80"/>
    </edge>
    <edge id=":G_16" function="internal">
        <lane id=":G_16_0" index="0" speed="9.73" length="16.48" shape="306.76,200.89 305.90,200.77 301.73,198.27 299.23,194.10 298.40,188.27"/>
    </edge>
    <edge id=":G_17" function="internal">
        <lane id=":G_17_0" index="0" speed="7.42" length="13.30" shape="305.76,200.93 305.59,200.91 302.79,198.84 303.31,195.40 307.16,190.58"/>
    </edge>
    <edge id=":G_18" function="internal">
        <lane id=":G_18_0" index="0" speed="3.65" length="3.23" shape="310.53,200.80 310.13,200.00 310.53,199.20 311.73,198.40"/>
    </edge>
    <edge id=":G_4" function="internal">
        <lane id=":G_4_0" index="0" speed="5.47" length="9.74" shape="309.42,192.84 307.48,195.27 307.22,197.01 308.63,198.05 311.73,198.40"/>
    </edge>
    <edge id=":G_5" function="internal">
        <lane id=":G_5_0" index="0" speed="14.37" length="19.24" shape="309.42,192.84 305.10,196.67 300.89,199.41 296.79,201.05 292.80,201.60"/>
    </edge>
    <edge id=":G_6" function="internal">
        <lane id=":G_6_0" index="0" speed="7.42" length="19.31" shape="309.42,192.84 304.60,196.69 301.16,197.21 299.09,194.41 298.40,188.27"/>
    </edge>
    <edge id=":G_7" function="internal">
        <lane id=":G_7_0" index="0" speed="3.65" length="4.67" shape="309.42,192.84 308.01,193.12 307.16,192.84 306.88,191.99 307.16,190.58"/>
    </edge>
    <edge id=":G_8" function="internal">
        <lane id=":G_8_0" index="0" speed="5.47" length="9.74" shape="301.60,188.27 301.95,191.37 302.99,192.78 304.73,192.52 307.16,190.58"/>
    </edge>
    <edge id=":G_9" function="internal">
        <lane id=":G_9_0" index="0" speed="8.54" length="16.33" shape="301.60,188.27 302.23,192.70 304.13,195.87 307.30,197.77 311.73,198.40"/>
    </edge>
    <edge id=":G_10" function="internal">
        <lane id=":G_10_0" index="0" speed="8.94" length="17.99" shape="301.60,188.27 301.05,194.10 299.40,198.27 296.65,200.77 292.80,201.60"/>
    </edge>
    <edge id=":G_11" function="internal">
        <lane id=":G_11_0" index="0" speed="3.65" length="4.67" shape="301.60,188.27 300.80,189.47 300.00,189.87 299.20,189.47 298.40,188.27"/>
    </edge>
    <edge id=":G_12" function="internal">
        <lane id=":G_12_0" index="0" speed="7.65" length="12.89" shape="292.80,198.40 295.25,197.77 297.00,195.87 298.05,192.70 298.40,188.27"/>
    </edge>
    <edge id=":G_13" function="internal">
        <lane id=":G_13_0" index="0" speed="13.42" length="16.74" shape="292.80,198.40 296.15,197.91 299.66,196.44 303.33,194.00 307.16,190.58"/>
    </edge>
    <edge id=":G_14" function="internal">
        <lane id=":G_14_0" index="0" speed="60.00" length="18.93" shape="292.80,198.40 311.73,198.40"/>
    </edge>
    <edge id=":G_15" function="internal">
        <lane id=":G_15_0" index="0" speed="3.65" length="1.44" shape="292.80,198.40 294.00,199.20"/>
    </edge>
    <edge id=":G_19" function="internal">
        <lane id=":G_19_0" index="0" speed="3.65" length="3.23" shape="294.00,199.20 294.40,200.00 294.00,200.80 292.80,201.60"/>
    </edge>
    <edge id=":H_0" function="internal">
        <lane id=":H_0_0" index="0" speed="12.76" length="24.37" shape="401.60,192.80 400.56,196.90 397.45,201.01 392.27,205.14 385.01,209.28"/>
    </edge>
    <edge id=":H_1" function="internal">
        <lane id=":H_1_0" index="0" speed="10.09" length="4.60" shape="401.60,192.80 400.40,196.65 399.95,196.99"/>
    </edge>
    <edge id=":H_2" function="internal">
        <lane id=":H_2_0" index="0" speed="3.65" length="1.44" shape="401.60,192.80 400.80,194.00"/>
    </edge>
    <edge id=":H_9" function="internal">
        <lane id=":H_9_0" index="0" speed="10.09" length="18.57" shape="399.95,196.99 396.81,199.40 390.83,201.05 382.44,201.60"/>
    </edge>
    <edge id=":H_10" function="internal">
        <lane id=":H_10_0" index="0" speed="3.65" length="3.23" shape="400.80,194.00 400.00,194.40 399.20,194.00 398.40,192.80"/>
    </edge>
    <edge id=":H_3" function="internal">
        <lane id=":H_3_0" index="0" speed="8.99" length="18.20" shape="382.44,198.40 389.43,198.05 394.41,197.00 397.40,195.25 398.40,192.80"/>
    </edge>
    <edge id=":H_4" function="internal">
        <lane id=":H_4_0" index="0" speed="6.26" length="15.29" shape="382.44,198.40 386.25,199.71 388.14,202.80 387.83,206.41 385.01,209.28"/>
    </edge>
    <edge id=":H_5" function="internal">
        <lane id=":H_5_0" index="0" speed="3.65" length="4.67" shape="382.44,198.40 383.64,199.20 384.04,200.00 383.64,200.80 382.44,201.60"/>
    </edge>
    <edge id=":H_6" function="internal">
        <lane id=":H_6_0" index="0" speed="5.60" length="11.85" shape="383.58,206.42 387.13,204.31 388.12,202.80 386.56,201.90 382.44,201.60"/>
    </edge>
    <edge id=":H_7" function="internal">
        <lane id=":H_7_0" index="0" speed="11.84" length="20.87" shape="383.58,206.42 390.07,202.79 394.70,199.31 397.47,195.98 398.40,192.80"/>
    </edge>
    <edge id=":H_8" function="internal">
        <lane id=":H_8_0" index="0" speed="3.65" length="1.44" shape="383.58,206.42 385.01,206.60"/>
    </edge>
    <edge id=":H_11" function="internal">
        <lane id=":H_11_0" index="0" speed="3.65" length="3.23" shape="385.01,206.60 385.73,207.14 385.73,208.03 385.01,209.28"/>
    </edge>
    <edge id=":I_0" function="internal">
        <lane id=":I_0_0" index="0" speed="5.47" length="9.74" shape="98.40,111.73 98.05,108.63 97.01,107.22 95.27,107.48 92.84,109.42"/>
    </edge>
    <edge id=":I_1" function="internal">
        <lane id=":I_1_0" index="0" speed="15.85" length="23.49" shape="98.40,111.73 98.95,105.76 100.59,100.24 103.33,95.18 107.16,90.58"/>
    </edge>
    <edge id=":I_2" function="internal">
        <lane id=":I_2_0" index="0" speed="9.73" length="21.49" shape="98.40,111.73 99.23,105.90 101.73,101.73 105.90,99.23 111.73,98.40"/>
    </edge>
    <edge id=":I_3" function="internal">
        <lane id=":I_3_0" index="0" speed="3.65" length="4.67" shape="98.40,111.73 99.20,110.53 100.00,110.13 100.80,110.53 101.60,111.73"/>
    </edge>
    <edge id=":I_4" function="internal">
        <lane id=":I_4_0" index="0" speed="8.54" length="16.33" shape="111.73,101.60 107.30,102.23 104.13,104.13 102.23,107.30 101.60,111.73"/>
    </edge>
    <edge id=":I_5" function="internal">
        <lane id=":I_5_0" index="0" speed="14.99" length="20.98" shape="111.73,101.60 106.40,102.09 101.47,103.56 96.95,106.00 92.84,109.42"/>
    </edge>
    <edge id=":I_6" function="internal">
        <lane id=":I_6_0" index="0" speed="7.42" length="19.31" shape="111.73,101.60 105.59,100.91 102.79,98.84 103.31,95.40 107.16,90.58"/>
    </edge>
    <edge id=":I_7" function="internal">
        <lane id=":I_7_0" index="0" speed="3.65" length="4.67" shape="111.73,101.60 110.53,100.80 110.13,100.00 110.53,99.20 111.73,98.40"/>
    </edge>
    <edge id=":I_8" function="internal">
        <lane id=":I_8_0" index="0" speed="5.47" length="9.74" shape="109.42,92.84 107.48,95.27 107.22,97.01 108.63,98.05 111.73,98.40"/>
    </edge>
    <edge id=":I_9" function="internal">
        <lane id=":I_9_0" index="0" speed="14.99" length="20.98" shape="109.42,92.84 106.00,96.95 103.56,101.47 102.09,106.40 101.60,111.73"/>
    </edge>
    <edge id=":I_10" function="internal">
        <lane id=":I_10_0" index="0" speed="60.00" length="23.45" shape="109.42,92.84 92.84,109.42"/>
    </edge>
    <edge id=":I_11" function="internal">
        <lane id=":I_11_0" index="0" speed="3.65" length="1.44" shape="109.42,92.84 108.01,93.12"/>
    </edge>
    <edge id=":I_16" function="internal">
        <lane id=":I_16_0" index="0" speed="3.65" length="3.23" shape="108.01,93.12 107.16,92.84 106.88,91.99 107.16,90.58"/>
    </edge>
    <edge id=":I_12" function="internal">
        <lane id=":I_12_0" index="0" speed="60.00" length="23.45" shape="90.58,107.16 107.16,90.58"/>
    </edge>
    <edge id=":I_13" function="internal">
        <lane id=":I_13_0" index="0" speed="15.85" length="6.48" shape="90.58,107.16 95.18,103.33 95.61,103.10"/>
    </edge>
    <edge id=":I_14" function="internal">
        <lane id=":I_14_0" index="0" speed="7.42" length="6.00" shape="90.58,107.16 95.27,103.42"/>
    </edge>
    <edge id=":I_15" function="internal">
        <lane id=":I_15_0" index="0" speed="3.65" length="1.44" shape="90.58,107.16 91.99,106.88"/>
    </edge>
    <edge id=":I_17" function="internal">
        <lane id=":I_17_0" index="0" speed="15.85" length="17.01" shape="95.61,103.10 100.24,100.59 105.76,98.95 111.73,98.40"/>
    </edge>
    <edge id=":I_18" function="internal">
        <lane id=":I_18_0" index="0" speed="7.42" length="13.30" shape="95.27,103.42 95.40,103.31 98.84,102.79 100.91,105.59 101.60,111.73"/>
    </edge>
    <edge id=":I_19" function="internal">
        <lane id=":I_19_0" index="0" speed="3.65" length="3.23" shape="91.99,106.88 92.84,107.16 93.12,108.01 92.84,109.42"/>
    </edge>
    <edge id=":J_0" function="internal">
        <lane id=":J_0_0" index="0" speed="6.51" length="9.03" shape="198.40,107.20 198.05,104.75 197.00,103.00 195.25,101.95 192.80,101.60"/>
    </edge>
    <edge id=":J_1" function="internal">
        <lane id=":J_1_0" index="0" speed="8.00" length="14.19" shape="198.40,107.20 198.95,103.35 200.60,100.60 203.35,98.95 207.20,98.40"/>
    </edge>
    <edge id=":J_2" function="internal">
        <lane id=":J_2_0" index="0" speed="3.65" length="4.67" shape="198.40,107.20 199.20,106.00 200.00,105.60 200.80,106.00 201.60,107.20"/>
    </edge>
    <edge id=":J_3" function="internal">
        <lane id=":J_3_0" index="0" speed="6.51" length="9.03" shape="207.20,101.60 204.75,101.95 203.00,103.00 201.95,104.75 201.60,107.20"/>
    </edge>
    <edge id=":J_4" function="internal">
        <lane id=":J_4_0" index="0" speed="60.00" length="14.40" shape="207.20,101.60 192.80,101.60"/>
    </edge>
    <edge id=":J_5" function="internal">
        <lane id=":J_5_0" index="0" speed="3.65" length="1.44" shape="207.20,101.60 206.00,100.80"/>
    </edge>
    <edge id=":J_9" function="internal">
        <lane id=":J_9_0" index="0" speed="3.65" length="3.23" shape="206.00,100.80 205.60,100.00 206.00,99.20 207.20,98.40"/>
    </edge>
    <edge id=":J_6" function="internal">
        <lane id=":J_6_0" index="0" speed="60.00" length="14.40" shape="192.80,98.40 207.20,98.40"/>
    </edge>
    <edge id=":J_7" function="internal">
        <lane id=":J_7_0" index="0" speed="8.00" length="4.07" shape="192.80,98.40 196.65,98.95 196.80,99.04"/>
    </edge>
    <edge id=":J_8" function="internal">
        <lane id=":J_8_0" index="0" speed="3.65" length="1.44" shape="192.80,98.40 194.00,99.20"/>
    </edge>
    <edge id=":J_10" function="internal">
        <lane id=":J_10_0" index="0" speed="8.00" length="10.13" shape="196.80,99.04 199.40,100.60 201.05,103.35 201.60,107.20"/>
    </edge>
    <edge id=":J_11" function="internal">
        <lane id=":J_11_0" index="0" speed="3.65" length="3.23" shape="194.00,99.20 194.40,100.00 194.00,100.80 192.80,101.60"/>
    </edge>
    <edge id=":K_0" function="internal">
        <lane id=":K_0_0" index="0" speed="6.51" length="9.03" shape="298.40,107.20 298.05,104.75 297.00,103.00 295.25,101.95 292.80,101.60"/>
    </edge>
    <edge id=":K_1" function="internal">
        <lane id=":K_1_0" index="0" speed="60.00" length="14.40" shape="298.40,107.20 298.40,92.80"/>
    </edge>
    <edge id=":K_2" function="internal">
        <lane id=":K_2_0" index="0" speed="8.00" length="4.07" shape="298.40,107.20 298.95,103.35 299.04,103.20"/>
    </edge>
    <edge id=":K_3" function="internal">
        <lane id=":K_3_0" index="0" speed="3.65" length="1.44" shape="298.40,107.20 299.20,106.00"/>
    </edge>
    <edge id=":K_16" function="internal">
        <lane id=":K_16_0" index="0" speed="8.00" length="10.13" shape="299.04,103.20 300.60,100.60 303.35,98.95 307.20,98.40"/>
    </edge>
    <edge id=":K_17" function="internal">
        <lane id=":K_17_0" index="0" speed="3.65" length="3.23" shape="299.20,106.00 300.00,105.60 300.80,106.00 301.60,107.20"/>
    </edge>
    <edge id=":K_4" function="internal">
        <lane id=":K_4_0" index="0" speed="6.51" length="9.03" shape="307.20,101.60 304.75,101.95 303.00,103.00 301.95,104.75 301.60,107.20"/>
    </edge>
    <edge id=":K_5" function="internal">
        <lane id=":K_5_0" index="0" speed="60.00" length="14.40" shape="307.20,101.60 292.80,101.60"/>
    </edge>
    <edge id=":K_6" function="internal">
        <lane id=":K_6_0" index="0" speed="8.00" length="14.19" shape="307.20,101.60 303.35,101.05 300.60,99.40 298.95,96.65 298.40,92.80"/>
    </edge>
    <edge id=":K_7" function="internal">
        <lane id=":K_7_0" index="0" speed="3.65" length="4.67" shape="307.20,101.60 306.00,100.80 305.60,100.00 306.00,99.20 307.20,98.40"/>
    </edge>
    <edge id=":K_8" function="internal">
        <lane id=":K_8_0" index="0" speed="6.51" length="9.03" shape="301.60,92.80 301.95,95.25 303.00,97.00 304.75,98.05 307.20,98.40"/>
    </edge>
    <edge id=":K_9" function="internal">
        <lane id=":K_9_0" index="0" speed="60.00" length="14.40" shape="301.60,92.80 301.60,107.20"/>
    </edge>
    <edge id=":K_10" function="internal">
        <lane id=":K_10_0" index="0" speed="8.00" length="4.07" shape="301.60,92.80 301.05,96.65 300.96,96.80"/>
    </edge>
    <edge id=":K_11" function="internal">
        <lane id=":K_11_0" index="0" speed="3.65" length="1.44" shape="301.60,92.80 300.80,94.00"/>
    </edge>
    <edge id=":K_18" function="internal">
        <lane id=":K_18_0" index="0" speed="8.00" length="10.13" shape="300.96,96.80 299.40,99.40 296.65,101.05 292.80,101.60"/>
    </edge>
    <edge id=":K_19" function="internal">
        <lane id=":K_19_0" index="0" speed="3.65" length="3.23" shape="300.80,94.00 300.00,94.40 299.20,94.00 298.40,92.80"/>
    </edge>
    <edge id=":K_12" function="internal">
        <lane id=":K_12_0" index="0" speed="6.51" length="9.03" shape="292.80,98.40 295.25,98.05 297.00,97.00 298.05,95.25 298.40,92.80"/>
    </edge>
    <edge id=":K_13" function="internal">
        <lane id=":K_13_0" index="0" speed="60.00" length="14.40" shape="292.80,98.40 307.20,98.40"/>
    </edge>
    <edge id=":K_14" function="internal">
        <lane id=":K_14_0" index="0" speed="8.00" length="14.19" shape="292.80,98.40 296.65,98.95 299.40,100.60 301.05,103.35 301.60,107.20"/>
    </edge>
    <edge id=":K_15" function="internal">
        <lane id=":K_15_0" index="0" speed="3.65" length="4.67" shape="292.80,98.40 294.00,99.20 294.40,100.00 294.00,100.80 292.80,101.60"/>
    </edge>
    <edge id=":L_0" function="internal">