<?xml version="1.0" encoding="UTF-8"?>

<!-- generated on 2023-06-13 15:35:22 by Eclipse SUMO netconvert Version 1.16.0
<configuration xmlns:xsi="http://www.w3.org/2001/XMLSchema-instance" xsi:noNamespaceSchemaLocation="http://sumo.dlr.de/xsd/netconvertConfiguration.xsd">

    <input>
        <node-files value="./network_files/nd/nd.nod.xml"/>
        <edge-files value="./network_files/nd/nd.edg-modified.xml"/>
    </input>

    <output>
        <output-file value="./network_files/net.net.xml"/>
    </output>

</configuration>
-->

<net version="1.16" junctionCornerDetail="5" limitTurnSpeed="5.50" xmlns:xsi="http://www.w3.org/2001/XMLSchema-instance" xsi:noNamespaceSchemaLocation="http://sumo.dlr.de/xsd/net_file.xsd">

    <location netOffset="100.00,300.00" convBoundary="0.00,0.00,400.00,300.00" origBoundary="-100.00,-300.00,300.00,0.00" projParameter="!"/>

    <edge id=":A_0" function="internal">
        <lane id=":A_0_0" index="0" speed="6.08" length="7.74" shape="103.20,301.60 101.10,301.30 99.60,300.40 98.70,298.90 98.40,296.80"/>
    </edge>
    <edge id=":A_1" function="internal">
        <lane id=":A_1_0" index="0" speed="3.90" length="2.58" shape="101.60,296.80 101.70,297.50 102.00,298.00 102.50,298.30 103.20,298.40"/>
    </edge>
    <edge id=":B_0" function="internal">
        <lane id=":B_0_0" index="0" speed="3.90" length="2.58" shape="398.40,103.20 398.30,102.50 398.00,102.00 397.50,101.70 396.80,101.60"/>
    </edge>
    <edge id=":B_1" function="internal">
        <lane id=":B_1_0" index="0" speed="6.08" length="7.74" shape="396.80,98.40 398.90,98.70 400.40,99.60 401.30,101.10 401.60,103.20"/>
    </edge>
    <edge id=":C_0" function="internal">
        <lane id=":C_0_0" index="0" speed="3.90" length="2.58" shape="298.40,3.20 298.30,2.50 298.00,2.00 297.50,1.70 296.80,1.60"/>
    </edge>
    <edge id=":C_1" function="internal">
        <lane id=":C_1_0" index="0" speed="6.08" length="7.74" shape="296.80,-1.60 298.90,-1.30 300.40,-0.40 301.30,1.10 301.60,3.20"/>
    </edge>
    <edge id=":D_0" function="internal">
        <lane id=":D_0_0" index="0" speed="6.49" length="14.35" shape="7.73,201.60 3.17,201.09 1.08,199.55 1.47,196.99 4.33,193.41"/>
    </edge>
    <edge id=":D_1" function="internal">
        <lane id=":D_1_0" index="0" speed="4.12" length="4.78" shape="6.59,195.67 5.64,196.86 5.51,197.72 6.21,198.23 7.73,198.40"/>
    </edge>
    <edge id=":E_0" function="internal">
        <lane id=":E_0_0" index="0" speed="7.33" length="11.73" shape="98.40,207.20 97.85,204.75 96.20,203.00 93.45,201.95 89.60,201.60"/>
    </edge>
    <edge id=":E_1" function="internal">
        <lane id=":E_1_0" index="0" speed="60.00" length="14.40" shape="98.40,207.20 98.40,192.80"/>
    </edge>
    <edge id=":E_2" function="internal">
        <lane id=":E_2_0" index="0" speed="8.67" length="5.00" shape="98.40,207.20 99.15,203.35 99.83,202.52"/>
    </edge>
    <edge id=":E_3" function="internal">
        <lane id=":E_3_0" index="0" speed="3.65" length="1.44" shape="98.40,207.20 99.20,206.00"/>
    </edge>
    <edge id=":E_16" function="internal">
        <lane id=":E_16_0" index="0" speed="8.67" length="11.85" shape="99.83,202.52 101.40,200.60 105.15,198.95 110.40,198.40"/>
    </edge>
    <edge id=":E_17" function="internal">
        <lane id=":E_17_0" index="0" speed="3.65" length="3.23" shape="99.20,206.00 100.00,205.60 100.80,206.00 101.60,207.20"/>
    </edge>
    <edge id=":E_4" function="internal">
        <lane id=":E_4_0" index="0" speed="7.33" length="11.73" shape="110.40,201.60 106.55,201.95 103.80,203.00 102.15,204.75 101.60,207.20"/>
    </edge>
    <edge id=":E_5" function="internal">
        <lane id=":E_5_0" index="0" speed="60.00" length="20.80" shape="110.40,201.60 89.60,201.60"/>
    </edge>
    <edge id=":E_6" function="internal">
        <lane id=":E_6_0" index="0" speed="8.67" length="16.85" shape="110.40,201.60 105.15,201.05 101.40,199.40 99.15,196.65 98.40,192.80"/>
    </edge>
    <edge id=":E_7" function="internal">
        <lane id=":E_7_0" index="0" speed="3.65" length="4.67" shape="110.40,201.60 109.20,200.80 108.80,200.00 109.20,199.20 110.40,198.40"/>
    </edge>
    <edge id=":E_8" function="internal">
        <lane id=":E_8_0" index="0" speed="6.51" length="9.03" shape="104.80,192.80 105.15,195.25 106.20,197.00 107.95,198.05 110.40,198.40"/>
    </edge>
    <edge id=":E_9" function="internal">
        <lane id=":E_9_0" index="0" speed="60.00" length="14.83" shape="104.80,192.80 104.30,197.46 103.20,200.89 102.10,203.88 101.60,207.20"/>
    </edge>
    <edge id=":E_10" function="internal">
        <lane id=":E_10_0" index="0" speed="8.67" length="3.71" shape="101.60,192.80 100.89,196.44"/>
    </edge>
    <edge id=":E_11" function="internal">
        <lane id=":E_11_0" index="0" speed="3.65" length="1.44" shape="101.60,192.80 100.80,194.00"/>
    </edge>
    <edge id=":E_18" function="internal">
        <lane id=":E_18_0" index="0" speed="8.67" length="13.14" shape="100.89,196.44 100.85,196.65 98.60,199.40 94.85,201.05 89.60,201.60"/>
    </edge>
    <edge id=":E_19" function="internal">
        <lane id=":E_19_0" index="0" speed="3.65" length="3.23" shape="100.80,194.00 100.00,194.40 99.20,194.00 98.40,192.80"/>
    </edge>
    <edge id=":E_12" function="internal">
        <lane id=":E_12_0" index="0" speed="6.51" length="9.03" shape="89.60,198.40 92.05,198.05 93.80,197.00 94.85,195.25 95.20,192.80"/>
    </edge>
    <edge id=":E_13" function="internal">
        <lane id=":E_13_0" index="0" speed="60.00" length="20.80" shape="89.60,198.40 110.40,198.40"/>
    </edge>
    <edge id=":E_14" function="internal">
        <lane id=":E_14_0" index="0" speed="8.67" length="16.85" shape="89.60,198.40 94.85,198.95 98.60,200.60 100.85,203.35 101.60,207.20"/>
    </edge>
    <edge id=":E_15" function="internal">
        <lane id=":E_15_0" index="0" speed="3.65" length="4.67" shape="89.60,198.40 90.80,199.20 91.20,200.00 90.80,200.80 89.60,201.60"/>
    </edge>
    <edge id=":F_0" function="internal">
        <lane id=":F_0_0" index="0" speed="6.51" length="9.03" shape="198.40,207.20 198.05,204.75 197.00,203.00 195.25,201.95 192.80,201.60"/>
    </edge>
    <edge id=":F_1" function="internal">
        <lane id=":F_1_0" index="0" speed="60.00" length="18.93" shape="198.40,207.20 198.40,188.27"/>
    </edge>
    <edge id=":F_2" function="internal">
        <lane id=":F_2_0" index="0" speed="14.37" length="4.39" shape="198.40,207.20 198.95,203.21 199.08,202.88"/>
    </edge>
    <edge id=":F_3" function="internal">
        <lane id=":F_3_0" index="0" speed="8.71" length="2.01" shape="198.40,207.20 199.17,205.34"/>
    </edge>
    <edge id=":F_4" function="internal">
        <lane id=":F_4_0" index="0" speed="3.65" length="1.44" shape="198.40,207.20 199.20,206.00"/>
    </edge>
    <edge id=":F_25" function="internal">
        <lane id=":F_25_0" index="0" speed="14.37" length="14.85" shape="199.08,202.88 200.59,199.11 203.33,194.90 207.16,190.58"/>
    </edge>
    <edge id=":F_26" function="internal">
        <lane id=":F_26_0" index="0" speed="8.71" length="15.01" shape="199.17,205.34 199.73,203.97 203.07,201.15 207.40,199.16 211.73,198.40"/>
    </edge>
    <edge id=":F_27" function="internal">
        <lane id=":F_27_0" index="0" speed="3.65" length="3.23" shape="199.20,206.00 200.00,205.60 200.80,206.00 201.60,207.20"/>
    </edge>
    <edge id=":F_5" function="internal">
        <lane id=":F_5_0" index="0" speed="7.65" length="12.89" shape="211.73,201.60 207.30,201.95 204.13,203.00 202.23,204.75 201.60,207.20"/>
    </edge>
    <edge id=":F_6" function="internal">
        <lane id=":F_6_0" index="0" speed="60.00" length="18.93" shape="211.73,201.60 192.80,201.60"/>
    </edge>
    <edge id=":F_7" function="internal">
        <lane id=":F_7_0" index="0" speed="9.73" length="21.49" shape="211.73,201.60 205.90,200.77 201.73,198.27 199.23,194.10 198.40,188.27"/>
    </edge>
    <edge id=":F_8" function="internal">
        <lane id=":F_8_0" index="0" speed="7.42" length="19.31" shape="211.73,201.60 205.59,200.91 202.79,198.84 203.31,195.40 207.16,190.58"/>
    </edge>
    <edge id=":F_9" function="internal">
        <lane id=":F_9_0" index="0" speed="3.65" length="4.67" shape="211.73,201.60 210.53,200.80 210.13,200.00 210.53,199.20 211.73,198.40"/>
    </edge>
    <edge id=":F_10" function="internal">
        <lane id=":F_10_0" index="0" speed="5.47" length="9.74" shape="209.42,192.84 207.48,195.27 207.22,197.01 208.63,198.05 211.73,198.40"/>
    </edge>
    <edge id=":F_11" function="internal">
        <lane id=":F_11_0" index="0" speed="13.42" length="16.74" shape="209.42,192.84 206.00,196.67 203.56,200.34 202.09,203.85 201.60,207.20"/>
    </edge>
    <edge id=":F_12" function="internal">
        <lane id=":F_12_0" index="0" speed="14.37" length="19.24" shape="209.42,192.84 205.10,196.67 200.89,199.41 196.79,201.05 192.80,201.60"/>
    </edge>
    <edge id=":F_13" function="internal">
        <lane id=":F_13_0" index="0" speed="7.42" length="19.31" shape="209.42,192.84 204.60,196.69 201.16,197.21 199.09,194.41 198.40,188.27"/>
    </edge>
    <edge id=":F_14" function="internal">
        <lane id=":F_14_0" index="0" speed="3.65" length="4.67" shape="209.42,192.84 208.01,193.12 207.16,192.84 206.88,191.99 207.16,190.58"/>
    </edge>
    <edge id=":F_15" function="internal">
        <lane id=":F_15_0" index="0" speed="5.47" length="9.74" shape="201.60,188.27 201.95,191.37 202.99,192.78 204.73,192.52 207.16,190.58"/>
    </edge>
    <edge id=":F_16" function="internal">
        <lane id=":F_16_0" index="0" speed="8.54" length="16.33" shape="201.60,188.27 202.23,192.70 204.13,195.87 207.30,197.77 211.73,198.40"/>
    </edge>
    <edge id=":F_17" function="internal">
        <lane id=":F_17_0" index="0" speed="60.00" length="18.93" shape="201.60,188.27 201.60,207.20"/>
    </edge>
    <edge id=":F_18" function="internal">
        <lane id=":F_18_0" index="0" speed="8.71" length="6.18" shape="201.60,188.27 200.84,192.60 200.10,194.22"/>
    </edge>
    <edge id=":F_19" function="internal">
        <lane id=":F_19_0" index="0" speed="3.65" length="1.44" shape="201.60,188.27 200.80,189.47"/>
    </edge>
    <edge id=":F_28" function="internal">
        <lane id=":F_28_0" index="0" speed="8.71" length="10.84" shape="200.10,194.22 198.85,196.93 196.03,200.27 192.80,201.60"/>
    </edge>
    <edge id=":F_29" function="internal">
        <lane id=":F_29_0" index="0" speed="3.65" length="3.23" shape="200.80,189.47 200.00,189.87 199.20,189.47 198.40,188.27"/>
    </edge>
    <edge id=":F_20" function="internal">
        <lane id=":F_20_0" index="0" speed="7.65" length="12.89" shape="192.80,198.40 195.25,197.77 197.00,195.87 198.05,192.70 198.40,188.27"/>
    </edge>
    <edge id=":F_21" function="internal">
        <lane id=":F_21_0" index="0" speed="13.42" length="16.74" shape="192.80,198.40 196.15,197.91 199.66,196.44 203.33,194.00 207.16,190.58"/>
    </edge>
    <edge id=":F_22" function="internal">
        <lane id=":F_22_0" index="0" speed="60.00" length="18.93" shape="192.80,198.40 211.73,198.40"/>
    </edge>
    <edge id=":F_23" function="internal">
        <lane id=":F_23_0" index="0" speed="8.00" length="14.19" shape="192.80,198.40 196.65,198.95 199.40,200.60 201.05,203.35 201.60,207.20"/>
    </edge>
    <edge id=":F_24" function="internal">
        <lane id=":F_24_0" index="0" speed="3.65" length="4.67" shape="192.80,198.40 194.00,199.20 194.40,200.00 194.00,200.80 192.80,201.60"/>
    </edge>
    <edge id=":G_0" function="internal">
        <lane id=":G_0_0" index="0" speed="60.00" length="14.40" shape="307.20,201.60 292.80,201.60"/>
    </edge>
    <edge id=":G_1" function="internal">
        <lane id=":G_1_0" index="0" speed="8.00" length="4.07" shape="307.20,201.60 303.35,201.05 303.20,200.96"/>
    </edge>
    <edge id=":G_2" function="internal">
        <lane id=":G_2_0" index="0" speed="3.65" length="1.44" shape="307.20,201.60 306.00,200.80"/>
    </edge>
    <edge id=":G_9" function="internal">
        <lane id=":G_9_0" index="0" speed="8.00" length="10.13" shape="303.20,200.96 300.60,199.40 298.95,196.65 298.40,192.80"/>
    </edge>
    <edge id=":G_10" function="internal">
        <lane id=":G_10_0" index="0" speed="3.65" length="3.23" shape="306.00,200.80 305.60,200.00 306.00,199.20 307.20,198.40"/>
    </edge>
    <edge id=":G_3" function="internal">
        <lane id=":G_3_0" index="0" speed="6.51" length="9.03" shape="301.60,192.80 301.95,195.25 303.00,197.00 304.75,198.05 307.20,198.40"/>
    </edge>
    <edge id=":G_4" function="internal">
        <lane id=":G_4_0" index="0" speed="8.00" length="14.19" shape="301.60,192.80 301.05,196.65 299.40,199.40 296.65,201.05 292.80,201.60"/>
    </edge>
    <edge id=":G_5" function="internal">
        <lane id=":G_5_0" index="0" speed="3.65" length="4.67" shape="301.60,192.80 300.80,194.00 300.00,194.40 299.20,194.00 298.40,192.80"/>
    </edge>
    <edge id=":G_6" function="internal">
        <lane id=":G_6_0" index="0" speed="6.51" length="9.03" shape="292.80,198.40 295.25,198.05 297.00,197.00 298.05,195.25 298.40,192.80"/>
    </edge>
    <edge id=":G_7" function="internal">
        <lane id=":G_7_0" index="0" speed="60.00" length="14.40" shape="292.80,198.40 307.20,198.40"/>
    </edge>
    <edge id=":G_8" function="internal">
        <lane id=":G_8_0" index="0" speed="3.65" length="1.44" shape="292.80,198.40 294.00,199.20"/>
    </edge>
    <edge id=":G_11" function="internal">
        <lane id=":G_11_0" index="0" speed="3.65" length="3.23" shape="294.00,199.20 294.40,200.00 294.00,200.80 292.80,201.60"/>
    </edge>
    <edge id=":H_0" function="internal">
        <lane id=":H_0_0" index="0" speed="12.76" length="24.37" shape="401.60,192.80 400.56,196.90 397.45,201.01 392.27,205.14 385.01,209.28"/>
    </edge>
    <edge id=":H_1" function="internal">
        <lane id=":H_1_0" index="0" speed="10.09" length="4.60" shape="401.60,192.80 400.40,196.65 399.95,196.99"/>
    </edge>
    <edge id=":H_2" function="internal">
        <lane id=":H_2_0" index="0" speed="3.65" length="1.44" shape="401.60,192.80 400.80,194.00"/>
    </edge>
    <edge id=":H_9" function="internal">
        <lane id=":H_9_0" index="0" speed="10.09" length="18.57" shape="399.95,196.99 396.81,199.40 390.83,201.05 382.44,201.60"/>
    </edge>
    <edge id=":H_10" function="internal">
        <lane id=":H_10_0" index="0" speed="3.65" length="3.23" shape="400.80,194.00 400.00,194.40 399.20,194.00 398.40,192.80"/>
    </edge>
    <edge id=":H_3" function="internal">
        <lane id=":H_3_0" index="0" speed="8.99" length="18.20" shape="382.44,198.40 389.43,198.05 394.41,197.00 397.40,195.25 398.40,192.80"/>
    </edge>
    <edge id=":H_4" function="internal">
        <lane id=":H_4_0" index="0" speed="6.26" length="15.29" shape="382.44,198.40 386.25,199.71 388.14,202.80 387.83,206.41 385.01,209.28"/>
    </edge>
    <edge id=":H_5" function="internal">
        <lane id=":H_5_0" index="0" speed="3.65" length="4.67" shape="382.44,198.40 383.64,199.20 384.04,200.00 383.64,200.80 382.44,201.60"/>
    </edge>
    <edge id=":H_6" function="internal">
        <lane id=":H_6_0" index="0" speed="5.60" length="11.85" shape="383.58,206.42 387.13,204.31 388.12,202.80 386.56,201.90 382.44,201.60"/>
    </edge>
    <edge id=":H_7" function="internal">
        <lane id=":H_7_0" index="0" speed="11.84" length="20.87" shape="383.58,206.42 390.07,202.79 394.70,199.31 397.47,195.98 398.40,192.80"/>
    </edge>
    <edge id=":H_8" function="internal">
        <lane id=":H_8_0" index="0" speed="3.65" length="1.44" shape="383.58,206.42 385.01,206.60"/>
    </edge>
    <edge id=":H_11" function="internal">
        <lane id=":H_11_0" index="0" speed="3.65" length="3.23" shape="385.01,206.60 385.73,207.14 385.73,208.03 385.01,209.28"/>
    </edge>
    <edge id=":I_0" function="internal">
        <lane id=":I_0_0" index="0" speed="5.47" length="9.74" shape="95.20,114.93 94.85,111.83 93.81,110.42 92.07,110.68 89.64,112.62"/>
    </edge>
    <edge id=":I_1" function="internal">
        <lane id=":I_1_0" index="0" speed="17.22" length="27.81" shape="95.20,114.93 95.95,108.76 98.19,102.64 101.93,96.58 107.16,90.58"/>
    </edge>
    <edge id=":I_2" function="internal">
        <lane id=":I_2_0" index="0" speed="10.28" length="24.13" shape="98.40,114.93 99.23,107.70 101.73,102.53 105.90,99.43 111.73,98.40"/>
    </edge>
    <edge id=":I_3" function="internal">
        <lane id=":I_3_0" index="0" speed="3.65" length="4.67" shape="98.40,114.93 99.20,113.73 100.00,113.33 100.80,113.73 101.60,114.93"/>
    </edge>
    <edge id=":I_4" function="internal">
        <lane id=":I_4_0" index="0" speed="8.62" length="16.66" shape="111.73,101.60 108.70,102.43 106.53,104.93 105.23,109.10 104.80,114.93"/>
    </edge>
    <edge id=":I_5" function="internal">
        <lane id=":I_5_0" index="0" speed="16.44" length="25.30" shape="111.73,101.60 106.20,102.29 100.67,104.36 95.15,107.80 89.64,112.62"/>
    </edge>
    <edge id=":I_6" function="internal">
        <lane id=":I_6_0" index="0" speed="7.42" length="19.31" shape="111.73,101.60 105.59,100.91 102.79,98.84 103.31,95.40 107.16,90.58"/>
    </edge>
    <edge id=":I_7" function="internal">
        <lane id=":I_7_0" index="0" speed="3.65" length="4.67" shape="111.73,101.60 110.53,100.80 110.13,100.00 110.53,99.20 111.73,98.40"/>
    </edge>
    <edge id=":I_8" function="internal">
        <lane id=":I_8_0" index="0" speed="5.47" length="9.74" shape="109.42,92.84 107.48,95.27 107.22,97.01 108.63,98.05 111.73,98.40"/>
    </edge>
    <edge id=":I_9" function="internal">
        <lane id=":I_9_0" index="0" speed="16.02" length="24.03" shape="109.42,92.84 106.00,97.15 103.56,102.27 102.09,108.20 101.60,114.93"/>
    </edge>
    <edge id=":I_10" function="internal">
        <lane id=":I_10_0" index="0" speed="60.00" length="27.98" shape="109.42,92.84 89.64,112.62"/>
    </edge>
    <edge id=":I_11" function="internal">
        <lane id=":I_11_0" index="0" speed="3.65" length="4.67" shape="109.42,92.84 108.01,93.12 107.16,92.84 106.88,91.99 107.16,90.58"/>
    </edge>
    <edge id=":I_12" function="internal">
        <lane id=":I_12_0" index="0" speed="60.00" length="27.98" shape="87.38,110.36 107.16,90.58"/>
    </edge>
    <edge id=":I_13" function="internal">
        <lane id=":I_13_0" index="0" speed="17.22" length="27.81" shape="87.38,110.36 93.38,105.13 99.44,101.39 105.56,99.15 111.73,98.40"/>
    </edge>
    <edge id=":I_14" function="internal">
        <lane id=":I_14_0" index="0" speed="7.50" length="19.73" shape="87.38,110.36 92.08,107.43 96.69,107.33 100.20,109.89 101.60,114.93"/>
    </edge>
    <edge id=":I_15" function="internal">
        <lane id=":I_15_0" index="0" speed="3.65" length="4.67" shape="87.38,110.36 88.79,110.08 89.64,110.36 89.92,111.21 89.64,112.62"/>
    </edge>
    <edge id=":J_0" function="internal">
        <lane id=":J_0_0" index="0" speed="6.51" length="9.03" shape="198.40,107.20 198.05,104.75 197.00,103.00 195.25,101.95 192.80,101.60"/>
    </edge>
    <edge id=":J_1" function="internal">
        <lane id=":J_1_0" index="0" speed="8.00" length="14.19" shape="198.40,107.20 198.95,103.35 200.60,100.60 203.35,98.95 207.20,98.40"/>
    </edge>
    <edge id=":J_2" function="internal">
        <lane id=":J_2_0" index="0" speed="3.65" length="4.67" shape="198.40,107.20 199.20,106.00 200.00,105.60 200.80,106.00 201.60,107.20"/>
    </edge>
    <edge id=":J_3" function="internal">
        <lane id=":J_3_0" index="0" speed="6.51" length="9.03" shape="207.20,101.60 204.75,101.95 203.00,103.00 201.95,104.75 201.60,107.20"/>
    </edge>
    <edge id=":J_4" function="internal">
        <lane id=":J_4_0" index="0" speed="60.00" length="14.40" shape="207.20,101.60 192.80,101.60"/>
    </edge>
    <edge id=":J_5" function="internal">
        <lane id=":J_5_0" index="0" speed="3.65" length="1.44" shape="207.20,101.60 206.00,100.80"/>
    </edge>
    <edge id=":J_9" function="internal">
        <lane id=":J_9_0" index="0" speed="3.65" length="3.23" shape="206.00,100.80 205.60,100.00 206.00,99.20 207.20,98.40"/>
    </edge>
    <edge id=":J_6" function="internal">
        <lane id=":J_6_0" index="0" speed="60.00" length="14.40" shape="192.80,98.40 207.20,98.40"/>
    </edge>
    <edge id=":J_7" function="internal">
        <lane id=":J_7_0" index="0" speed="8.00" length="4.07" shape="192.80,98.40 196.65,98.95 196.80,99.04"/>
    </edge>
    <edge id=":J_8" function="internal">
        <lane id=":J_8_0" index="0" speed="3.65" length="1.44" shape="192.80,98.40 194.00,99.20"/>
    </edge>
    <edge id=":J_10" function="internal">
        <lane id=":J_10_0" index="0" speed="8.00" length="10.13" shape="196.80,99.04 199.40,100.60 201.05,103.35 201.60,107.20"/>
    </edge>
    <edge id=":J_11" function="internal">
        <lane id=":J_11_0" index="0" speed="3.65" length="3.23" shape="194.00,99.20 194.40,100.00 194.00,100.80 192.80,101.60"/>
    </edge>
    <edge id=":K_0" function="internal">
        <lane id=":K_0_0" index="0" speed="5.47" length="9.74" shape="298.40,111.73 298.05,108.63 297.01,107.22 295.27,107.48 292.84,109.42"/>
    </edge>
    <edge id=":K_1" function="internal">
        <lane id=":K_1_0" index="0" speed="8.54" length="16.33" shape="298.40,111.73 297.77,107.30 295.87,104.13 292.70,102.23 288.27,101.60"/>
    </edge>
    <edge id=":K_2" function="internal">
        <lane id=":K_2_0" index="0" speed="60.00" length="18.93" shape="298.40,111.73 298.40,92.80"/>
    </edge>
    <edge id=":K_3" function="internal">
        <lane id=":K_3_0" index="0" speed="8.71" length="6.18" shape="298.40,111.73 299.16,107.40 299.90,105.78"/>
    </edge>
    <edge id=":K_4" function="internal">
        <lane id=":K_4_0" index="0" speed="3.65" length="1.44" shape="298.40,111.73 299.20,110.53"/>
    </edge>
    <edge id=":K_25" function="internal">
        <lane id=":K_25_0" index="0" speed="8.71" length="10.84" shape="299.90,105.78 301.15,103.07 303.97,99.73 307.20,98.40"/>
    </edge>
    <edge id=":K_26" function="internal">
        <lane id=":K_26_0" index="0" speed="3.65" length="3.23" shape="299.20,110.53 300.00,110.13 300.80,110.53 301.60,111.73"/>
    </edge>
    <edge id=":K_5" function="internal">
        <lane id=":K_5_0" index="0" speed="7.65" length="12.89" shape="307.20,101.60 304.75,102.23 303.00,104.13 301.95,107.30 301.60,111.73"/>
    </edge>
    <edge id=":K_6" function="internal">
        <lane id=":K_6_0" index="0" speed="13.42" length="16.74" shape="307.20,101.60 303.85,102.09 300.34,103.56 296.67,106.00 292.84,109.42"/>
    </edge>
    <edge id=":K_7" function="internal">
        <lane id=":K_7_0" index="0" speed="60.00" length="18.93" shape="307.20,101.60 288.27,101.60"/>
    </edge>
    <edge id=":K_8" function="internal">
        <lane id=":K_8_0" index="0" speed="8.00" length="14.19" shape="307.20,101.60 303.35,101.05 300.60,99.40 298.95,96.65 298.40,92.80"/>
    </edge>
    <edge id=":K_9" function="internal">
        <lane id=":K_9_0" index="0" speed="3.65" length="4.67" shape="307.20,101.60 306.00,100.80 305.60,100.00 306.00,99.20 307.20,98.40"/>
    </edge>
    <edge id=":K_10" function="internal">
        <lane id=":K_10_0" index="0" speed="6.51" length="9.03" shape="301.60,92.80 301.95,95.25 303.00,97.00 304.75,98.05 307.20,98.40"/>
    </edge>
    <edge id=":K_11" function="internal">
        <lane id=":K_11_0" index="0" speed="60.00" length="18.93" shape="301.60,92.80 301.60,111.73"/>
    </edge>
    <edge id=":K_12" function="internal">
        <lane id=":K_12_0" index="0" speed="14.37" length="4.39" shape="301.60,92.80 301.05,96.79 300.92,97.12"/>
    </edge>
    <edge id=":K_13" function="internal">
        <lane id=":K_13_0" index="0" speed="8.71" length="3.50" shape="301.60,92.80 300.27,96.03"/>
    </edge>
    <edge id=":K_14" function="internal">
        <lane id=":K_14_0" index="0" speed="3.65" length="1.44" shape="301.60,92.80 300.80,94.00"/>
    </edge>
    <edge id=":K_27" function="internal">
        <lane id=":K_27_0" index="0" speed="14.37" length="14.85" shape="300.92,97.12 299.41,100.89 296.67,105.10 292.84,109.42"/>
    </edge>
    <edge id=":K_28" function="internal">
        <lane id=":K_28_0" index="0" speed="8.71" length="13.53" shape="300.27,96.03 296.93,98.85 292.60,100.84 288.27,101.60"/>
    </edge>
    <edge id=":K_29" function="internal">
        <lane id=":K_29_0" index="0" speed="3.65" length="3.23" shape="300.80,94.00 300.00,94.40 299.20,94.00 298.40,92.80"/>
    </edge>
    <edge id=":K_15" function="internal">
        <lane id=":K_15_0" index="0" speed="7.65" length="12.89" shape="288.27,98.40 292.70,98.05 295.87,97.00 297.77,95.25 298.40,92.80"/>
    </edge>
    <edge id=":K_16" function="internal">
        <lane id=":K_16_0" index="0" speed="60.00" length="18.93" shape="288.27,98.40 307.20,98.40"/>
    </edge>
    <edge id=":K_17" function="internal">
        <lane id=":K_17_0" index="0" speed="9.73" length="21.49" shape="288.27,98.40 294.10,99.23 298.27,101.73 300.77,105.90 301.60,111.73"/>
    </edge>
    <edge id=":K_18" function="internal">
        <lane id=":K_18_0" index="0" speed="7.42" length="19.31" shape="288.27,98.40 294.41,99.09 297.21,101.16 296.69,104.60 292.84,109.42"/>
    </edge>
    <edge id=":K_19" function="internal">
        <lane id=":K_19_0" index="0" speed="3.65" length="4.67" shape="288.27,98.40 289.47,99.20 289.87,100.00 289.47,100.80 288.27,101.60"/>
    </edge>
    <edge id=":K_20" function="internal">
        <lane id=":K_20_0" index="0" speed="5.47" length="9.74" shape="290.58,107.16 292.52,104.73 292.78,102.99 291.37,101.95 288.27,101.60"/>
    </edge>
    <edge id=":K_21" function="internal">
        <lane id=":K_21_0" index="0" speed="13.42" length="16.74" shape="290.58,107.16 294.00,103.33 296.44,99.66 297.91,96.15 298.40,92.80"/>
    </edge>
    <edge id=":K_22" function="internal">
        <lane id=":K_22_0" index="0" speed="14.37" length="19.24" shape="290.58,107.16 294.90,103.33 299.11,100.59 303.21,98.95 307.20,98.40"/>
    </edge>
    <edge id=":K_23" function="internal">
        <lane id=":K_23_0" index="0" speed="7.42" length="19.31" shape="290.58,107.16 295.40,103.31 298.84,102.79 300.91,105.59 301.60,111.73"/>
    </edge>
    <edge id=":K_24" function="internal">
        <lane id=":K_24_0" index="0" speed="3.65" length="4.67" shape="290.58,107.16 291.99,106.88 292.84,107.16 293.12,108.01 292.84,109.42"/>
    </edge>
    <edge id=":L_0" function="internal">
        <lane id=":L_0_0" index="0" speed="21.50" length="16.80" shape="208.92,297.33 205.22,298.94 201.06,300.30 196.80,301.25 192.80,301.60"/>
    </edge>
    <edge id=":L_1" function="internal">
        <lane id=":L_1_0" index="0" speed="7.44" length="5.30" shape="208.92,297.33 204.32,298.89 203.89,298.82"/>
    </edge>
    <edge id=":L_2" function="internal">
        <lane id=":L_2_0" index="0" speed="3.65" length="1.44" shape="208.92,297.33 207.49,297.15"/>
    </edge>
    <edge id=":L_9" function="internal">
        <lane id=":L_9_0" index="0" speed="7.44" length="11.10" shape="203.89,298.82 201.03,298.33 199.06,295.64 198.40,290.82"/>
    </edge>
    <edge id=":L_10" function="internal">
        <lane id=":L_10_0" index="0" speed="3.65" length="3.23" shape="207.49,297.15 206.78,296.61 206.78,295.72 207.49,294.46"/>
    </edge>
    <edge id=":L_3" function="internal">
        <lane id=":L_3_0" index="0" speed="5.74" length="9.18" shape="201.60,290.82 201.97,293.52 203.07,295.03 204.91,295.34 207.49,294.46"/>
    </edge>
    <edge id=":L_4" function="internal">
        <lane id=":L_4_0" index="0" speed="8.42" length="15.82" shape="201.60,290.82 201.05,295.54 199.40,298.91 196.65,300.93 192.80,301.60"/>
    </edge>
    <edge id=":L_5" function="internal">
        <lane id=":L_5_0" index="0" speed="3.65" length="4.67" shape="201.60,290.82 200.80,292.02 200.00,292.42 199.20,292.02 198.40,290.82"/>
    </edge>
    <edge id=":L_6" function="internal">
        <lane id=":L_6_0" index="0" speed="7.02" length="10.67" shape="192.80,298.40 195.25,297.93 197.00,296.51 198.05,294.14 198.40,290.82"/>
    </edge>
    <edge id=":L_7" function="internal">
        <lane id=":L_7_0" index="0" speed="20.55" length="15.33" shape="192.80,298.40 196.58,298.10 200.34,297.27 204.01,296.02 207.49,294.46"/>
    </edge>
    <edge id=":L_8" function="internal">
        <lane id=":L_8_0" index="0" speed="3.65" length="1.44" shape="192.80,298.40 194.00,299.20"/>
    </edge>
    <edge id=":L_11" function="internal">
        <lane id=":L_11_0" index="0" speed="3.65" length="3.23" shape="194.00,299.20 194.40,300.00 194.00,300.80 192.80,301.60"/>
    </edge>
    <edge id=":M_0" function="internal">
        <lane id=":M_0_0" index="0" speed="4.20" length="1.26" shape="201.33,1.60 201.01,1.63 200.71,1.72 200.44,1.86 200.19,2.07"/>
    </edge>
    <edge id=":M_1" function="internal">
        <lane id=":M_1_0" index="0" speed="6.63" length="3.77" shape="197.93,-0.19 198.67,-0.81 199.48,-1.25 200.37,-1.51 201.33,-1.60"/>
    </edge>

    <edge id="AE" from="A" to="E" priority="-1" length="70.00">
        <lane id="AE_0" index="0" speed="60.00" length="70.00" shape="98.40,296.80 98.40,207.20"/>
    </edge>
    <edge id="AL" from="A" to="L" priority="-1" length="90.00">
        <lane id="AL_0" index="0" speed="60.00" length="90.00" shape="103.20,298.40 192.80,298.40"/>
    </edge>
    <edge id="BH" from="B" to="H" priority="-1" length="80.00">
        <lane id="BH_0" index="0" speed="60.00" length="80.00" shape="401.60,103.20 401.60,192.80"/>
    </edge>
    <edge id="BK" from="B" to="K" priority="-1" length="90.00">
        <lane id="BK_0" index="0" speed="60.00" length="90.00" shape="396.80,101.60 307.20,101.60"/>
    </edge>
    <edge id="CK" from="C" to="K" priority="-1" length="80.00">
        <lane id="CK_0" index="0" speed="60.00" length="80.00" shape="301.60,3.20 301.60,92.80"/>
    </edge>