<?xml version="1.0" encoding="UTF-8"?>

<!-- generated on 2023-06-26 14:00:02 by Eclipse SUMO netconvert Version 1.16.0
<configuration xmlns:xsi="http://www.w3.org/2001/XMLSchema-instance" xsi:noNamespaceSchemaLocation="http://sumo.dlr.de/xsd/netconvertConfiguration.xsd">

    <input>
        <node-files value="65-PIN3/src/network_files/ow/ow.nod.xml"/>
        <edge-files value="65-PIN3/src/network_files/ow/ow.edg-modified.xml"/>
    </input>

    <output>
        <output-file value="65-PIN3/src/network_files/net.net.xml"/>
    </output>

</configuration>
-->

<net version="1.16" junctionCornerDetail="5" limitTurnSpeed="5.50" xmlns:xsi="http://www.w3.org/2001/XMLSchema-instance" xsi:noNamespaceSchemaLocation="http://sumo.dlr.de/xsd/net_file.xsd">

    <location netOffset="0.00,200.00" convBoundary="0.00,0.00,400.00,200.00" origBoundary="0.00,-200.00,400.00,0.00" projParameter="!"/>

    <edge id=":A_0" function="internal">
        <lane id=":A_0_0" index="0" speed="9.73" length="21.49" shape="11.73,201.60 5.90,200.77 1.73,198.27 -0.77,194.10 -1.60,188.27"/>
    </edge>
    <edge id=":A_1" function="internal">
        <lane id=":A_1_0" index="0" speed="7.42" length="9.49" shape="11.73,201.60 5.59,200.91 2.92,198.94"/>
    </edge>
    <edge id=":A_2" function="internal">
        <lane id=":A_2_0" index="0" speed="3.65" length="1.44" shape="11.73,201.60 10.53,200.80"/>
    </edge>
    <edge id=":A_9" function="internal">
        <lane id=":A_9_0" index="0" speed="7.42" length="9.82" shape="2.92,198.94 2.79,198.84 3.31,195.40 7.16,190.58"/>
    </edge>
    <edge id=":A_10" function="internal">
        <lane id=":A_10_0" index="0" speed="3.65" length="3.23" shape="10.53,200.80 10.13,200.00 10.53,199.20 11.73,198.40"/>
    </edge>
    <edge id=":A_3" function="internal">
        <lane id=":A_3_0" index="0" speed="5.47" length="9.74" shape="9.42,192.84 7.48,195.27 7.22,197.01 8.63,198.05 11.73,198.40"/>
    </edge>
    <edge id=":A_4" function="internal">
        <lane id=":A_4_0" index="0" speed="7.42" length="19.31" shape="9.42,192.84 4.60,196.69 1.16,197.21 -0.91,194.41 -1.60,188.27"/>
    </edge>
    <edge id=":A_5" function="internal">
        <lane id=":A_5_0" index="0" speed="3.65" length="4.67" shape="9.42,192.84 8.01,193.12 7.16,192.84 6.88,191.99 7.16,190.58"/>
    </edge>
    <edge id=":A_6" function="internal">
        <lane id=":A_6_0" index="0" speed="5.47" length="9.74" shape="1.60,188.27 1.95,191.37 2.99,192.78 4.73,192.52 7.16,190.58"/>
    </edge>
    <edge id=":A_7" function="internal">
        <lane id=":A_7_0" index="0" speed="8.54" length="16.33" shape="1.60,188.27 2.23,192.70 4.13,195.87 7.30,197.77 11.73,198.40"/>
    </edge>
    <edge id=":A_8" function="internal">
        <lane id=":A_8_0" index="0" speed="3.65" length="1.30" shape="1.60,188.27 0.88,189.36"/>
    </edge>
    <edge id=":A_11" function="internal">
        <lane id=":A_11_0" index="0" speed="3.65" length="3.37" shape="0.88,189.36 0.80,189.47 0.00,189.87 -0.80,189.47 -1.60,188.27"/>
    </edge>
    <edge id=":B_0" function="internal">
        <lane id=":B_0_0" index="0" speed="14.37" length="19.24" shape="-1.60,107.20 -1.05,103.21 0.59,99.11 3.33,94.90 7.16,90.58"/>
    </edge>
    <edge id=":B_1" function="internal">
        <lane id=":B_1_0" index="0" speed="8.94" length="4.59" shape="-1.60,107.20 -0.77,103.35 -0.33,102.87"/>
    </edge>
    <edge id=":B_2" function="internal">
        <lane id=":B_2_0" index="0" speed="3.65" length="1.44" shape="-1.60,107.20 -0.80,106.00"/>
    </edge>
    <edge id=":B_9" function="internal">
        <lane id=":B_9_0" index="0" speed="8.94" length="13.40" shape="-0.33,102.87 1.73,100.60 5.90,98.95 11.73,98.40"/>
    </edge>
    <edge id=":B_10" function="internal">
        <lane id=":B_10_0" index="0" speed="3.65" length="3.23" shape="-0.80,106.00 0.00,105.60 0.80,106.00 1.60,107.20"/>
    </edge>
    <edge id=":B_3" function="internal">
        <lane id=":B_3_0" index="0" speed="7.65" length="12.89" shape="11.73,101.60 7.30,101.95 4.13,103.00 2.23,104.75 1.60,107.20"/>
    </edge>
    <edge id=":B_4" function="internal">
        <lane id=":B_4_0" index="0" speed="7.42" length="19.31" shape="11.73,101.60 5.59,100.91 2.79,98.84 3.31,95.40 7.16,90.58"/>
    </edge>
    <edge id=":B_5" function="internal">
        <lane id=":B_5_0" index="0" speed="3.65" length="4.67" shape="11.73,101.60 10.53,100.80 10.13,100.00 10.53,99.20 11.73,98.40"/>
    </edge>
    <edge id=":B_6" function="internal">
        <lane id=":B_6_0" index="0" speed="5.47" length="9.74" shape="9.42,92.84 7.48,95.27 7.22,97.01 8.63,98.05 11.73,98.40"/>
    </edge>
    <edge id=":B_7" function="internal">
        <lane id=":B_7_0" index="0" speed="13.42" length="16.74" shape="9.42,92.84 6.00,96.67 3.56,100.34 2.09,103.85 1.60,107.20"/>
    </edge>
    <edge id=":B_8" function="internal">
        <lane id=":B_8_0" index="0" speed="3.65" length="1.44" shape="9.42,92.84 8.01,93.12"/>
    </edge>
    <edge id=":B_11" function="internal">
        <lane id=":B_11_0" index="0" speed="3.65" length="3.23" shape="8.01,93.12 7.16,92.84 6.88,91.99 7.16,90.58"/>
    </edge>
    <edge id=":C_0" function="internal">
        <lane id=":C_0_0" index="0" speed="60.00" length="18.93" shape="111.73,201.60 92.80,201.60"/>
    </edge>
    <edge id=":C_1" function="internal">
        <lane id=":C_1_0" index="0" speed="9.73" length="5.01" shape="111.73,201.60 106.76,200.89"/>
    </edge>
    <edge id=":C_2" function="internal">
        <lane id=":C_2_0" index="0" speed="7.42" length="6.00" shape="111.73,201.60 105.76,200.93"/>
    </edge>
    <edge id=":C_3" function="internal">
        <lane id=":C_3_0" index="0" speed="3.65" length="1.44" shape="111.73,201.60 110.53,200.80"/>
    </edge>
    <edge id=":C_16" function="internal">
        <lane id=":C_16_0" index="0" speed="9.73" length="16.48" shape="106.76,200.89 105.90,200.77 101.73,198.27 99.23,194.10 98.40,188.27"/>
    </edge>
    <edge id=":C_17" function="internal">
        <lane id=":C_17_0" index="0" speed="7.42" length="13.30" shape="105.76,200.93 105.59,200.91 102.79,198.84 103.31,195.40 107.16,190.58"/>
    </edge>
    <edge id=":C_18" function="internal">
        <lane id=":C_18_0" index="0" speed="3.65" length="3.23" shape="110.53,200.80 110.13,200.00 110.53,199.20 111.73,198.40"/>
    </edge>
    <edge id=":C_4" function="internal">
        <lane id=":C_4_0" index="0" speed="5.47" length="9.74" shape="109.42,192.84 107.48,195.27 107.22,197.01 108.63,198.05 111.73,198.40"/>
    </edge>
    <edge id=":C_5" function="internal">
        <lane id=":C_5_0" index="0" speed="14.37" length="19.24" shape="109.42,192.84 105.10,196.67 100.89,199.41 96.79,201.05 92.80,201.60"/>
    </edge>
    <edge id=":C_6" function="internal">
        <lane id=":C_6_0" index="0" speed="7.42" length="19.31" shape="109.42,192.84 104.60,196.69 101.16,197.21 99.09,194.41 98.40,188.27"/>
    </edge>
    <edge id=":C_7" function="internal">
        <lane id=":C_7_0" index="0" speed="3.65" length="4.67" shape="109.42,192.84 108.01,193.12 107.16,192.84 106.88,191.99 107.16,190.58"/>
    </edge>
    <edge id=":C_8" function="internal">
        <lane id=":C_8_0" index="0" speed="5.47" length="9.74" shape="101.60,188.27 101.95,191.37 102.99,192.78 104.73,192.52 107.16,190.58"/>
    </edge>
    <edge id=":C_9" function="internal">
        <lane id=":C_9_0" index="0" speed="8.54" length="16.33" shape="101.60,188.27 102.23,192.70 104.13,195.87 107.30,197.77 111.73,198.40"/>
    </edge>
    <edge id=":C_10" function="internal">
        <lane id=":C_10_0" index="0" speed="8.94" length="17.99" shape="101.60,188.27 101.05,194.10 99.40,198.27 96.65,200.77 92.80,201.60"/>
    </edge>
    <edge id=":C_11" function="internal">
        <lane id=":C_11_0" index="0" speed="3.65" length="4.67" shape="101.60,188.27 100.80,189.47 100.00,189.87 99.20,189.47 98.40,188.27"/>
    </edge>
    <edge id=":C_12" function="internal">
        <lane id=":C_12_0" index="0" speed="7.65" length="12.89" shape="92.80,198.40 95.25,197.77 97.00,195.87 98.05,192.70 98.40,188.27"/>
    </edge>
    <edge id=":C_13" function="internal">
        <lane id=":C_13_0" index="0" speed="13.42" length="16.74" shape="92.80,198.40 96.15,197.91 99.66,196.44 103.33,194.00 107.16,190.58"/>
    </edge>
    <edge id=":C_14" function="internal">
        <lane id=":C_14_0" index="0" speed="60.00" length="18.93" shape="92.80,198.40 111.73,198.40"/>
    </edge>
    <edge id=":C_15" function="internal">
        <lane id=":C_15_0" index="0" speed="3.65" length="1.44" shape="92.80,198.40 94.00,199.20"/>
    </edge>
    <edge id=":C_19" function="internal">
        <lane id=":C_19_0" index="0" speed="3.65" length="3.23" shape="94.00,199.20 94.40,200.00 94.00,200.80 92.80,201.60"/>
    </edge>
    <edge id=":D_0" function="internal">
        <lane id=":D_0_0" index="0" speed="5.47" length="9.74" shape="98.40,111.73 98.05,108.63 97.01,107.22 95.27,107.48 92.84,109.42"/>
    </edge>
    <edge id=":D_1" function="internal">
        <lane id=":D_1_0" index="0" speed="8.54" length="16.33" shape="98.40,111.73 97.77,107.30 95.87,104.13 92.70,102.23 88.27,101.60"/>
    </edge>
    <edge id=":D_2" function="internal">
        <lane id=":D_2_0" index="0" speed="60.00" length="23.45" shape="98.40,111.73 98.40,88.27"/>
    </edge>
    <edge id=":D_3" function="internal">
        <lane id=":D_3_0" index="0" speed="15.85" length="5.99" shape="98.40,111.73 98.95,105.76"/>
    </edge>
    <edge id=":D_4" function="internal">
        <lane id=":D_4_0" index="0" speed="9.73" length="5.01" shape="98.40,111.73 99.11,106.76"/>
    </edge>
    <edge id=":D_5" function="internal">
        <lane id=":D_5_0" index="0" speed="3.65" length="1.44" shape="98.40,111.73 99.20,110.53"/>
    </edge>
    <edge id=":D_36" function="internal">
        <lane id=":D_36_0" index="0" speed="15.85" length="17.50" shape="98.95,105.76 100.59,100.24 103.33,95.18 107.16,90.58"/>
    </edge>
    <edge id=":D_37" function="internal">
        <lane id=":D_37_0" index="0" speed="9.73" length="16.48" shape="99.11,106.76 99.23,105.90 101.73,101.73 105.90,99.23 111.73,98.40"/>
    </edge>
    <edge id=":D_38" function="internal">
        <lane id=":D_38_0" index="0" speed="3.65" length="3.23" shape="99.20,110.53 100.00,110.13 100.80,110.53 101.60,111.73"/>
    </edge>
    <edge id=":D_6" function="internal">
        <lane id=":D_6_0" index="0" speed="8.54" length="16.33" shape="111.73,101.60 107.30,102.23 104.13,104.13 102.23,107.30 101.60,111.73"/>
    </edge>
    <edge id=":D_7" function="internal">
        <lane id=":D_7_0" index="0" speed="14.99" length="20.98" shape="111.73,101.60 106.40,102.09 101.47,103.56 96.95,106.00 92.84,109.42"/>
    </edge>
    <edge id=":D_8" function="internal">
        <lane id=":D_8_0" index="0" speed="60.00" length="23.45" shape="111.73,101.60 88.27,101.60"/>
    </edge>
    <edge id=":D_9" function="internal">
        <lane id=":D_9_0" index="0" speed="9.73" length="21.49" shape="111.73,101.60 105.90,100.77 101.73,98.27 99.23,94.10 98.40,88.27"/>
    </edge>
    <edge id=":D_10" function="internal">
        <lane id=":D_10_0" index="0" speed="7.42" length="19.31" shape="111.73,101.60 105.59,100.91 102.79,98.84 103.31,95.40 107.16,90.58"/>
    </edge>
    <edge id=":D_11" function="internal">
        <lane id=":D_11_0" index="0" speed="3.65" length="4.67" shape="111.73,101.60 110.53,100.80 110.13,100.00 110.53,99.20 111.73,98.40"/>
    </edge>
    <edge id=":D_12" function="internal">
        <lane id=":D_12_0" index="0" speed="5.47" length="9.74" shape="109.42,92.84 107.48,95.27 107.22,97.01 108.63,98.05 111.73,98.40"/>
    </edge>
    <edge id=":D_13" function="internal">
        <lane id=":D_13_0" index="0" speed="14.99" length="20.98" shape="109.42,92.84 106.00,96.95 103.56,101.47 102.09,106.40 101.60,111.73"/>
    </edge>
    <edge id=":D_14" function="internal">
        <lane id=":D_14_0" index="0" speed="60.00" length="23.45" shape="109.42,92.84 92.84,109.42"/>
    </edge>
    <edge id=":D_15" function="internal">
        <lane id=":D_15_0" index="0" speed="15.85" length="23.49" shape="109.42,92.84 104.82,96.67 99.76,99.41 94.24,101.05 88.27,101.60"/>
    </edge>
    <edge id=":D_16" function="internal">
        <lane id=":D_16_0" index="0" speed="7.42" length="19.31" shape="109.42,92.84 104.60,96.69 101.16,97.21 99.09,94.41 98.40,88.27"/>
    </edge>
    <edge id=":D_17" function="internal">
        <lane id=":D_17_0" index="0" speed="3.65" length="4.67" shape="109.42,92.84 108.01,93.12 107.16,92.84 106.88,91.99 107.16,90.58"/>
    </edge>
    <edge id=":D_18" function="internal">
        <lane id=":D_18_0" index="0" speed="5.47" length="9.74" shape="101.60,88.27 101.95,91.37 102.99,92.78 104.73,92.52 107.16,90.58"/>
    </edge>
    <edge id=":D_19" function="internal">
        <lane id=":D_19_0" index="0" speed="8.54" length="16.33" shape="101.60,88.27 102.23,92.70 104.13,95.87 107.30,97.77 111.73,98.40"/>
    </edge>
    <edge id=":D_20" function="internal">
        <lane id=":D_20_0" index="0" speed="60.00" length="23.45" shape="101.60,88.27 101.60,111.73"/>
    </edge>
    <edge id=":D_21" function="internal">
        <lane id=":D_21_0" index="0" speed="15.85" length="5.99" shape="101.60,88.27 101.05,94.24"/>
    </edge>
    <edge id=":D_22" function="internal">
        <lane id=":D_22_0" index="0" speed="9.73" length="5.01" shape="101.60,88.27 100.89,93.24"/>
    </edge>
    <edge id=":D_23" function="internal">
        <lane id=":D_23_0" index="0" speed="3.65" length="1.44" shape="101.60,88.27 100.80,89.47"/>
    </edge>
    <edge id=":D_39" function="internal">
        <lane id=":D_39_0" index="0" speed="15.85" length="17.50" shape="101.05,94.24 99.41,99.76 96.67,104.82 92.84,109.42"/>
    </edge>
    <edge id=":D_40" function="internal">
        <lane id=":D_40_0" index="0" speed="9.73" length="16.48" shape="100.89,93.24 100.77,94.10 98.27,98.27 94.10,100.77 88.27,101.60"/>
    </edge>
    <edge id=":D_41" function="internal">
        <lane id=":D_41_0" index="0" speed="3.65" length="3.23" shape="100.80,89.47 100.00,89.87 99.20,89.47 98.40,88.27"/>
    </edge>
    <edge id=":D_24" function="internal">
        <lane id=":D_24_0" index="0" speed="8.54" length="16.33" shape="88.27,98.40 92.70,97.77 95.87,95.87 97.77,92.70 98.40,88.27"/>
    </edge>
    <edge id=":D_25" function="internal">
        <lane id=":D_25_0" index="0" speed="14.99" length="20.98" shape="88.27,98.40 93.60,97.91 98.53,96.44 103.05,94.00 107.16,90.58"/>
    </edge>
    <edge id=":D_26" function="internal">
        <lane id=":D_26_0" index="0" speed="60.00" length="23.45" shape="88.27,98.40 111.73,98.40"/>
    </edge>
    <edge id=":D_27" function="internal">
        <lane id=":D_27_0" index="0" speed="9.73" length="21.49" shape="88.27,98.40 94.10,99.23 98.27,101.73 100.77,105.90 101.60,111.73"/>
    </edge>
    <edge id=":D_28" function="internal">
        <lane id=":D_28_0" index="0" speed="7.42" length="19.31" shape="88.27,98.40 94.41,99.09 97.21,101.16 96.69,104.60 92.84,109.42"/>
    </edge>
    <edge id=":D_29" function="internal">
        <lane id=":D_29_0" index="0" speed="3.65" length="4.67" shape="88.27,98.40 89.47,99.20 89.87,100.00 89.47,100.80 88.27,101.60"/>
    </edge>
    <edge id=":D_30" function="internal">
        <lane id=":D_30_0" index="0" speed="5.47" length="9.74" shape="90.58,107.16 92.52,104.73 92.78,102.99 91.37,101.95 88.27,101.60"/>
    </edge>
    <edge id=":D_31" function="internal">
        <lane id=":D_31_0" index="0" speed="14.99" length="20.98" shape="90.58,107.16 94.00,103.05 96.44,98.53 97.91,93.60 98.40,88.27"/>
    </edge>
    <edge id=":D_32" function="internal">
        <lane id=":D_32_0" index="0" speed="60.00" length="23.45" shape="90.58,107.16 107.16,90.58"/>
    </edge>
    <edge id=":D_33" function="internal">
        <lane id=":D_33_0" index="0" speed="15.85" length="23.49" shape="90.58,107.16 95.18,103.33 100.24,100.59 105.76,98.95 111.73,98.40"/>
    </edge>
    <edge id=":D_34" function="internal">
        <lane id=":D_34_0" index="0" speed="7.42" length="19.31" shape="90.58,107.16 95.40,103.31 98.84,102.79 100.91,105.59 101.60,111.73"/>
    </edge>
    <edge id=":D_35" function="internal">
        <lane id=":D_35_0" index="0" speed="3.65" length="4.67" shape="90.58,107.16 91.99,106.88 92.84,107.16 93.12,108.01 92.84,109.42"/>
    </edge>
    <edge id=":E_0" function="internal">
        <lane id=":E_0_0" index="0" speed="5.47" length="9.74" shape="98.40,11.73 98.05,8.63 97.01,7.22 95.27,7.48 92.84,9.42"/>
    </edge>
    <edge id=":E_1" function="internal">
        <lane id=":E_1_0" index="0" speed="8.94" length="17.99" shape="98.40,11.73 98.95,5.90 100.60,1.73 103.35,-0.77 107.20,-1.60"/>
    </edge>
    <edge id=":E_2" function="internal">
        <lane id=":E_2_0" index="0" speed="3.65" length="4.67" shape="98.40,11.73 99.20,10.53 100.00,10.13 100.80,10.53 101.60,11.73"/>
    </edge>
    <edge id=":E_3" function="internal">
        <lane id=":E_3_0" index="0" speed="7.65" length="12.89" shape="107.20,1.60 104.75,2.23 103.00,4.13 101.95,7.30 101.60,11.73"/>
    </edge>
    <edge id=":E_4" function="internal">
        <lane id=":E_4_0" index="0" speed="13.42" length="16.74" shape="107.20,1.60 103.85,2.09 100.34,3.56 96.67,6.00 92.84,9.42"/>
    </edge>
    <edge id=":E_5" function="internal">
        <lane id=":E_5_0" index="0" speed="3.65" length="1.31" shape="107.20,1.60 106.11,0.87"/>
    </edge>
    <edge id=":E_9" function="internal">
        <lane id=":E_9_0" index="0" speed="3.65" length="3.37" shape="106.11,0.87 106.00,0.80 105.60,0.00 106.00,-0.80 107.20,-1.60"/>
    </edge>
    <edge id=":E_6" function="internal">
        <lane id=":E_6_0" index="0" speed="14.37" length="19.24" shape="90.58,7.16 94.90,3.33 99.11,0.59 103.21,-1.05 107.20,-1.60"/>
    </edge>
    <edge id=":E_7" function="internal">
        <lane id=":E_7_0" index="0" speed="7.42" length="6.93" shape="90.58,7.16 95.40,3.31 96.15,3.20"/>
    </edge>
    <edge id=":E_8" function="internal">
        <lane id=":E_8_0" index="0" speed="3.65" length="1.44" shape="90.58,7.16 91.99,6.88"/>
    </edge>
    <edge id=":E_10" function="internal">
        <lane id=":E_10_0" index="0" speed="7.42" length="12.37" shape="96.15,3.20 98.84,2.79 100.91,5.59 101.60,11.73"/>
    </edge>
    <edge id=":E_11" function="internal">
        <lane id=":E_11_0" index="0" speed="3.65" length="3.23" shape="91.99,6.88 92.84,7.16 93.12,8.01 92.84,9.42"/>
    </edge>
    <edge id=":F_0" function="internal">
        <lane id=":F_0_0" index="0" speed="60.00" length="14.40" shape="207.20,201.60 192.80,201.60"/>
    </edge>
    <edge id=":F_1" function="internal">
        <lane id=":F_1_0" index="0" speed="8.00" length="4.07" shape="207.20,201.60 203.35,201.05 203.20,200.96"/>
    </edge>
    <edge id=":F_2" function="internal">
        <lane id=":F_2_0" index="0" speed="3.65" length="1.44" shape="207.20,201.60 206.00,200.80"/>
    </edge>
    <edge id=":F_9" function="internal">
        <lane id=":F_9_0" index="0" speed="8.00" length="10.13" shape="203.20,200.96 200.60,199.40 198.95,196.65 198.40,192.80"/>
    </edge>
    <edge id=":F_10" function="internal">
        <lane id=":F_10_0" index="0" speed="3.65" length="3.23" shape="206.00,200.80 205.60,200.00 206.00,199.20 207.20,198.40"/>
    </edge>
    <edge id=":F_3" function="internal">
        <lane id=":F_3_0" index="0" speed="6.51" length="9.03" shape="201.60,192.80 201.95,195.25 203.00,197.00 204.75,198.05 207.20,198.40"/>
    </edge>
    <edge id=":F_4" function="internal">
        <lane id=":F_4_0" index="0" speed="8.00" length="14.19" shape="201.60,192.80 201.05,196.65 199.40,199.40 196.65,201.05 192.80,201.60"/>
    </edge>
    <edge id=":F_5" function="internal">
        <lane id=":F_5_0" index="0" speed="3.65" length="4.67" shape="201.60,192.80 200.80,194.00 200.00,194.40 199.20,194.00 198.40,192.80"/>
    </edge>
    <edge id=":F_6" function="internal">
        <lane id=":F_6_0" index="0" speed="6.51" length="9.03" shape="192.80,198.40 195.25,198.05 197.00,197.00 198.05,195.25 198.40,192.80"/>
    </edge>
    <edge id=":F_7" function="internal">
        <lane id=":F_7_0" index="0" speed="60.00" length="14.40" shape="192.80,198.40 207.20,198.40"/>
    </edge>
    <edge id=":F_8" function="internal">
        <lane id=":F_8_0" index="0" speed="3.65" length="1.44" shape="192.80,198.40 194.00,199.20"/>
    </edge>
    <edge id=":F_11" function="internal">
        <lane id=":F_11_0" index="0" speed="3.65" length="3.23" shape="194.00,199.20 194.40,200.00 194.00,200.80 192.80,201.60"/>
    </edge>
    <edge id=":G_0" function="internal">
        <lane id=":G_0_0" index="0" speed="5.47" length="9.74" shape="198.40,111.73 198.05,108.63 197.01,107.22 195.27,107.48 192.84,109.42"/>
    </edge>
    <edge id=":G_1" function="internal">
        <lane id=":G_1_0" index="0" speed="8.54" length="16.33" shape="198.40,111.73 197.77,107.30 195.87,104.13 192.70,102.23 188.27,101.60"/>
    </edge>
    <edge id=":G_2" function="internal">
        <lane id=":G_2_0" index="0" speed="60.00" length="23.45" shape="198.40,111.73 198.40,88.27"/>
    </edge>
    <edge id=":G_3" function="internal">
        <lane id=":G_3_0" index="0" speed="17.22" length="27.81" shape="198.40,111.73 199.15,105.56 201.39,99.44 205.13,93.38 210.36,87.38"/>
    </edge>
    <edge id=":G_4" function="internal">
        <lane id=":G_4_0" index="0" speed="10.28" length="24.13" shape="198.40,111.73 199.43,105.90 202.53,101.73 207.70,99.23 214.93,98.40"/>
    </edge>
    <edge id=":G_5" function="internal">
        <lane id=":G_5_0" index="0" speed="3.65" length="4.67" shape="198.40,111.73 199.20,110.53 200.00,110.13 200.80,110.53 201.60,111.73"/>
    </edge>
    <edge id=":G_6" function="internal">
        <lane id=":G_6_0" index="0" speed="8.62" length="16.66" shape="214.93,104.80 209.10,105.23 204.93,106.53 202.43,108.70 201.60,111.73"/>
    </edge>
    <edge id=":G_7" function="internal">
        <lane id=":G_7_0" index="0" speed="15.67" length="22.96" shape="214.93,104.80 207.00,105.09 200.67,105.96 195.95,107.40 192.84,109.42"/>
    </edge>
    <edge id=":G_8" function="internal">
        <lane id=":G_8_0" index="0" speed="60.00" length="26.86" shape="214.93,104.80 207.25,104.30 199.72,103.20 193.14,102.10 188.27,101.60"/>
    </edge>
    <edge id=":G_9" function="internal">
        <lane id=":G_9_0" index="0" speed="10.28" length="6.17" shape="214.93,101.60 208.80,100.89"/>
    </edge>
    <edge id=":G_10" function="internal">
        <lane id=":G_10_0" index="0" speed="7.50" length="2.74" shape="214.93,101.60 212.28,100.87"/>
    </edge>
    <edge id=":G_11" function="internal">
        <lane id=":G_11_0" index="0" speed="3.65" length="1.44" shape="214.93,101.60 213.73,100.80"/>
    </edge>
    <edge id=":G_36" function="internal">
        <lane id=":G_36_0" index="0" speed="10.28" length="17.96" shape="208.80,100.89 207.70,100.77 202.53,98.27 199.43,94.10 198.40,88.27"/>
    </edge>
    <edge id=":G_37" function="internal">
        <lane id=":G_37_0" index="0" speed="7.50" length="16.98" shape="212.28,100.87 209.89,100.20 207.33,96.69 207.43,92.08 210.36,87.38"/>
    </edge>
    <edge id=":G_38" function="internal">
        <lane id=":G_38_0" index="0" speed="3.65" length="3.23" shape="213.73,100.80 213.33,100.00 213.73,99.20 214.93,98.40"/>
    </edge>
    <edge id=":G_12" function="internal">
        <lane id=":G_12_0" index="0" speed="5.47" length="9.74" shape="212.62,89.64 210.68,92.07 210.42,93.81 211.83,94.85 214.93,95.20"/>
    </edge>
    <edge id=":G_13" function="internal">
        <lane id=":G_13_0" index="0" speed="16.44" length="25.30" shape="212.62,89.64 207.80,95.15 204.36,100.67 202.29,106.20 201.60,111.73"/>
    </edge>
    <edge id=":G_14" function="internal">
        <lane id=":G_14_0" index="0" speed="60.00" length="27.98" shape="212.62,89.64 192.84,109.42"/>
    </edge>
    <edge id=":G_15" function="internal">
        <lane id=":G_15_0" index="0" speed="17.22" length="27.81" shape="212.62,89.64 206.62,94.87 200.56,98.61 194.44,100.85 188.27,101.60"/>
    </edge>
    <edge id=":G_16" function="internal">
        <lane id=":G_16_0" index="0" speed="7.34" length="18.82" shape="212.62,89.64 208.03,92.91 203.41,94.04 199.83,92.63 198.40,88.27"/>
    </edge>
    <edge id=":G_17" function="internal">
        <lane id=":G_17_0" index="0" speed="3.65" length="4.67" shape="212.62,89.64 211.21,89.92 210.36,89.64 210.08,88.79 210.36,87.38"/>
    </edge>
    <edge id=":G_18" function="internal">
        <lane id=":G_18_0" index="0" speed="6.18" length="12.88" shape="201.60,88.27 202.15,91.17 203.79,91.98 206.53,90.72 210.36,87.38"/>
    </edge>
    <edge id=":G_19" function="internal">
        <lane id=":G_19_0" index="0" speed="8.62" length="16.66" shape="201.60,88.27 202.43,91.30 204.93,93.47 209.10,94.77 214.93,95.20"/>
    </edge>
    <edge id=":G_20" function="internal">
        <lane id=":G_20_0" index="0" speed="60.00" length="23.45" shape="201.60,88.27 201.60,111.73"/>
    </edge>
    <edge id=":G_21" function="internal">
        <lane id=":G_21_0" index="0" speed="15.85" length="23.49" shape="201.60,88.27 201.05,94.24 199.41,99.76 196.67,104.82 192.84,109.42"/>
    </edge>
    <edge id=":G_22" function="internal">
        <lane id=":G_22_0" index="0" speed="9.73" length="21.49" shape="201.60,88.27 200.77,94.10 198.27,98.27 194.10,100.77 188.27,101.60"/>
    </edge>
    <edge id=":G_23" function="internal">
        <lane id=":G_23_0" index="0" speed="3.65" length="4.67" shape="201.60,88.27 200.80,89.47 200.00,89.87 199.20,89.47 198.40,88.27"/>
    </edge>
    <edge id=":G_24" function="internal">
        <lane id=":G_24_0" index="0" speed="8.54" length="16.33" shape="188.27,98.40 192.70,97.77 195.87,95.87 197.77,92.70 198.40,88.27"/>
    </edge>
    <edge id=":G_25" function="internal">
        <lane id=":G_25_0" index="0" speed="16.44" length="25.30" shape="188.27,98.40 193.80,97.71 199.33,95.64 204.85,92.20 210.36,87.38"/>
    </edge>
    <edge id=":G_26" function="internal">
        <lane id=":G_26_0" index="0" speed="60.00" length="26.65" shape="188.27,98.40 214.93,98.40"/>
    </edge>
    <edge id=":G_27" function="internal">
        <lane id=":G_27_0" index="0" speed="9.73" length="7.03" shape="188.27,98.40 194.10,99.23 195.08,99.82"/>
    </edge>
    <edge id=":G_28" function="internal">
        <lane id=":G_28_0" index="0" speed="7.42" length="7.40" shape="188.27,98.40 194.41,99.09 195.40,99.82"/>
    </edge>
    <edge id=":G_29" function="internal">
        <lane id=":G_29_0" index="0" speed="3.65" length="1.44" shape="188.27,98.40 189.47,99.20"/>
    </edge>
    <edge id=":G_39" function="internal">
        <lane id=":G_39_0" index="0" speed="9.73" length="14.47" shape="195.08,99.82 198.27,101.73 200.77,105.90 201.60,111.73"/>
    </edge>
    <edge id=":G_40" function="internal">
        <lane id=":G_40_0" index="0" speed="7.42" length="11.90" shape="195.40,99.82 197.21,101.16 196.69,104.60 192.84,109.42"/>
    </edge>
    <edge id=":G_41" function="internal">
        <lane id=":G_41_0" index="0" speed="3.65" length="3.23" shape="189.47,99.20 189.87,100.00 189.47,100.80 188.27,101.60"/>
    </edge>
    <edge id=":G_30" function="internal">
        <lane id=":G_30_0" index="0" speed="5.47" length="9.74" shape="190.58,107.16 192.52,104.73 192.78,102.99 191.37,101.95 188.27,101.60"/>
    </edge>
    <edge id=":G_31" function="internal">
        <lane id=":G_31_0" index="0" speed="14.99" length="20.98" shape="190.58,107.16 194.00,103.05 196.44,98.53 197.91,93.60 198.40,88.27"/>
    </edge>
    <edge id=":G_32" function="internal">
        <lane id=":G_32_0" index="0" speed="60.00" length="27.98" shape="190.58,107.16 210.36,87.38"/>
    </edge>
    <edge id=":G_33" function="internal">
        <lane id=":G_33_0" index="0" speed="16.83" length="26.54" shape="190.58,107.16 195.38,103.33 201.04,100.59 207.56,98.95 214.93,98.40"/>
    </edge>
    <edge id=":G_34" function="internal">
        <lane id=":G_34_0" index="0" speed="7.42" length="19.31" shape="190.58,107.16 195.40,103.31 198.84,102.79 200.91,105.59 201.60,111.73"/>
    </edge>
    <edge id=":G_35" function="internal">
        <lane id=":G_35_0" index="0" speed="3.65" length="4.67" shape="190.58,107.16 191.99,106.88 192.84,107.16 193.12,108.01 192.84,109.42"/>
    </edge>
    <edge id=":H_0" function="internal">
        <lane id=":H_0_0" index="0" speed="5.47" length="9.74" shape="198.40,11.73 198.05,8.63 197.01,7.22 195.27,7.48 192.84,9.42"/>
    </edge>
    <edge id=":H_1" function="internal">
        <lane id=":H_1_0" index="0" speed="8.54" length="16.33" shape="198.40,11.73 197.77,7.30 195.87,4.13 192.70,2.23 188.27,1.60"/>
    </edge>
    <edge id=":H_2" function="internal">
        <lane id=":H_2_0" index="0" speed="8.94" length="17.99" shape="198.40,11.73 198.95,5.90 200.60,1.73 203.35,-0.77 207.20,-1.60"/>
    </edge>
    <edge id=":H_3" function="internal">
        <lane id=":H_3_0" index="0" speed="3.65" length="4.67" shape="198.40,11.73 199.20,10.53 200.00,10.13 200.80,10.53 201.60,11.73"/>
    </edge>
    <edge id=":H_4" function="internal">
        <lane id=":H_4_0" index="0" speed="6.85" length="10.12" shape="207.20,4.80 204.75,5.23 203.00,6.53 201.95,8.70 201.60,11.73"/>
    </edge>
    <edge id=":H_5" function="internal">
        <lane id=":H_5_0" index="0" speed="12.91" length="15.46" shape="207.20,4.80 202.65,5.09 198.74,5.96 195.47,7.40 192.84,9.42"/>
    </edge>
    <edge id=":H_6" function="internal">
        <lane id=":H_6_0" index="0" speed="60.00" length="18.93" shape="207.20,1.60 188.27,1.60"/>
    </edge>
    <edge id=":H_7" function="internal">
        <lane id=":H_7_0" index="0" speed="3.65" length="1.44" shape="207.20,1.60 206.00,0.80"/>
    </edge>
    <edge id=":H_17" function="internal">
        <lane id=":H_17_0" index="0" speed="3.65" length="3.23" shape="206.00,0.80 205.60,0.00 206.00,-0.80 207.20,-1.60"/>