<?xml version="1.0" encoding="UTF-8"?>

<!-- generated on 2023-06-13 11:52:22.430668 by randomTrips.py v1_16_0+0000-94ec4c6cd72
<configuration>
    <end value="50"/>
    <net-file value="./network_files/net.net.xml"/>
    <output-trip-file value="./network_files/nd/trips/nd50output.trips.xml"/>
</configuration>
-->

<routes xmlns:xsi="http://www.w3.org/2001/XMLSchema-instance" xsi:noNamespaceSchemaLocation="http://sumo.dlr.de/xsd/routes_file.xsd">
    <trip id="0" depart="0.00" from="IJ" to="AL"/>
    <trip id="1" depart="1.00" from="ED" to="DI"/>
    <trip id="2" depart="2.00" from="JK" to="JF"/>
    <trip id="3" depart="3.00" from="LF" to="BH"/>
    <trip id="4" depart="4.00" from="FL" to="AL"/>
    <trip id="5" depart="5.00" from="DI" to="HB"/>
    <trip id="6" depart="6.00" from="AL" to="DE"/>
    <trip id="7" depart="7.00" from="IM" to="HG"/>
    <trip id="8" depart="8.00" from="DI" to="ID"/>
    <trip id="9" depart="9.00" from="KC" to="AE"/>
    <trip id="10" depart="10.00" from="KC" to="JI"/>
    <trip id="11" depart="11.00" from="FE" to="CK"/>
    <trip id="12" depart="12.00" from="MI" to="FE"/>
    <trip id="13" depart="13.00" from="BH" to="BK"/>
    <trip id="14" depart="14.00" from="KJ" to="IE"/>
    <trip id="15" depart="15.00" from="KC" to="JK"/>
    <trip id="16" depart="16.00" from="HG" to="MI"/>
    <trip id="17" depart="17.00" from="FG" to="HL"/>
    <trip id="18" depart="18.00" from="KG" to="IE"/>
    <trip id="19" depart="19.00" from="LA" to="ID"/>
    <trip id="20" depart="20.00" from="JI" to="AL"/>
    <trip id="21" depart="21.00" from="DI" to="EF"/>
    <trip id="22" depart="22.00" from="BH" to="DI"/>
    <trip id="23" depart="23.00" from="BK" to="ED"/>
    <trip id="24" depart="24.00" from="IJ" to="FG"/>
    <trip id="25" depart="25.00" from="FG" to="DE"/>
    <trip id="26" depart="26.00" from="ED" to="MC"/>
    <trip id="27" depart="27.00" from="IM" to="IE"/>
    <trip id="28" depart="28.00" from="CM" to="JK"/>
    <trip id="29" depart="29.00" from="CK" to="FG"/>
    <trip id="30" depart="30.00" from="MJ" to="IJ"/>
    <trip id="31" depart="31.00" from="HL" to="JF"/>
    <trip id="32" depart="32.00" from="KJ" to="KB"/>
    <trip id="33" depart="33.00" from="DI" to="AL"/>
    <trip id="34" depart="34.00" from="EI" to="ED"/>
    <trip id="35" depart="35.00" from="DE" to="MC"/>
    <trip id="36" depart="36.00" from="LA" to="EI"/>
    <trip id="37" depart="37.00" from="IM" to="FJ"/>
    <trip id="38" depart="38.00" from="LH" to="GH"/>
    <trip id="39" depart="39.00" from="ED" to="EA"/>
    <trip id="40" depart="40.00" from="HL" to="ED"/>
    <trip id="41" depart="41.00" from="ID" to="LF"/>
    <trip id="42" depart="42.00" from="FJ" to="DI"/>
    <trip id="43" depart="43.00" from="MJ" to="HB"/>
    <trip id="44" depart="44.00" from="BH" to="AL"/>
    <trip id="45" depart="45.00" from="BK" to="IJ"/>
    <trip id="46" depart="46.00" from="KC" to="FL"/>
    <trip id="47" depart="47.00" from="BC" to="FJ"/>
    <trip id="48" depart="48.00" from="MJ" to="HG"/>
    <trip id="49" depart="49.00" from="MI" to="LA"/>
</routes>
