<edges>
	<edge from="A" to="B" id="AB" length="70.00" numLanes="1" speed="60.00" />
	<edge from="B" to="A" id="BA" length="70.00" numLanes="1" speed="60.00" />
	<edge from="A" to="D" id="AD" length="150.00" numLanes="1" speed="60.00" />
	<edge from="D" to="A" id="DA" length="150.00" numLanes="1" speed="60.00" />
	<edge from="A" to="C" id="AC" length="50.00" numLanes="1" speed="60.00" />
	<edge from="C" to="A" id="CA" length="50.00" numLanes="1" speed="60.00" />
	<edge from="E" to="B" id="EB" length="110.00" numLanes="1" speed="60.00" />
	<edge from="B" to="E" id="BE" length="110.00" numLanes="1" speed="60.00" />
	<edge from="D" to="B" id="DB" length="110.00" numLanes="1" speed="60.00" />
	<edge from="B" to="D" id="BD" length="110.00" numLanes="1" speed="60.00" />
	<edge from="D" to="C" id="DC" length="70.00" numLanes="1" speed="60.00" />
	<edge from="C" to="D" id="CD" length="70.00" numLanes="1" speed="60.00" />
	<edge from="C" to="F" id="CF" length="110.00" numLanes="1" speed="60.00" />
	<edge from="F" to="C" id="FC" length="110.00" numLanes="1" speed="60.00" />
	<edge from="G" to="C" id="GC" length="90.00" numLanes="1" speed="60.00" />
	<edge from="C" to="G" id="CG" length="90.00" numLanes="1" speed="60.00" />
	<edge from="D" to="E" id="DE" length="70.00" numLanes="1" speed="60.00" />
	<edge from="E" to="D" id="ED" length="70.00" numLanes="1" speed="60.00" />
	<edge from="G" to="D" id="GD" length="70.00" numLanes="1" speed="60.00" />
	<edge from="D" to="G" id="DG" length="70.00" numLanes="1" speed="60.00" />
	<edge from="H" to="D" id="HD" length="90.00" numLanes="1" speed="60.00" />
	<edge from="D" to="H" id="DH" length="90.00" numLanes="1" speed="60.00" />
	<edge from="G" to="F" id="GF" length="90.00" numLanes="1" speed="60.00" />
	<edge from="F" to="G" id="FG" length="90.00" numLanes="1" speed="60.00" />
	<edge from="H" to="E" id="HE" length="70.00" numLanes="1" speed="60.00" />
	<edge from="E" to="H" id="EH" length="70.00" numLanes="1" speed="60.00" />
	<edge from="G" to="H" id="GH" length="90.00" numLanes="1" speed="60.00" />
	<edge from="H" to="G" id="HG" length="90.00" numLanes="1" speed="60.00" />
	<edge from="K" to="H" id="KH" length="30.00" numLanes="1" speed="60.00" />
	<edge from="H" to="K" id="HK" length="30.00" numLanes="1" speed="60.00" />
	<edge from="K" to="G" id="KG" length="130.00" numLanes="1" speed="60.00" />
	<edge from="G" to="K" id="GK" length="130.00" numLanes="1" speed="60.00" />
	<edge from="K" to="M" id="KM" length="20.00" numLanes="1" speed="60.00" />
	<edge from="M" to="K" id="MK" length="20.00" numLanes="1" speed="60.00" />
	<edge from="J" to="M" id="JM" length="120.00" numLanes="1" speed="60.00" />
	<edge from="M" to="J" id="MJ" length="120.00" numLanes="1" speed="60.00" />
	<edge from="J" to="K" id="JK" length="90.00" numLanes="1" speed="60.00" />
	<edge from="K" to="J" id="KJ" length="90.00" numLanes="1" speed="60.00" />
	<edge from="J" to="L" id="JL" length="120.00" numLanes="1" speed="60.00" />
	<edge from="L" to="J" id="LJ" length="120.00" numLanes="1" speed="60.00" />
	<edge from="J" to="G" id="JG" length="30.00" numLanes="1" speed="60.00" />
	<edge from="G" to="J" id="GJ" length="30.00" numLanes="1" speed="60.00" />
	<edge from="F" to="I" id="FI" length="130.00" numLanes="1" speed="60.00" />
	<edge from="I" to="F" id="IF" length="130.00" numLanes="1" speed="60.00" />
	<edge from="J" to="I" id="JI" length="90.00" numLanes="1" speed="60.00" />
	<edge from="I" to="J" id="IJ" length="90.00" numLanes="1" speed="60.00" />
	<edge from="L" to="I" id="LI" length="20.00" numLanes="1" speed="60.00" />
	<edge from="I" to="L" id="IL" length="20.00" numLanes="1" speed="60.00" />
</edges>