<?xml version="1.0" encoding="UTF-8"?>

<!-- generated on 2023-07-05 22:10:49 by Eclipse SUMO duarouter Version 1.16.0
<configuration xmlns:xsi="http://www.w3.org/2001/XMLSchema-instance" xsi:noNamespaceSchemaLocation="http://sumo.dlr.de/xsd/duarouterConfiguration.xsd">

    <input>
        <net-file value="65-PIN3/src/solver/smac/network_files/net.net.xml"/>
        <route-files value="65-PIN3/src/solver/smac/network_files/ow/trips/ow150output.trips.xml"/>
    </input>

    <output>
        <output-file value="65-PIN3/src/solver/smac/network_files/net.rou.xml"/>
    </output>

    <report>
        <ignore-errors value="true"/>
    </report>

</configuration>
-->

<routes xmlns:xsi="http://www.w3.org/2001/XMLSchema-instance" xsi:noNamespaceSchemaLocation="http://sumo.dlr.de/xsd/routes_file.xsd">
    <vehicle id="0" depart="0.00">
        <route edges="HG GD DA AC"/>
    </vehicle>
    <vehicle id="1" depart="0.00">
        <route edges="DE ED DA"/>
    </vehicle>
    <vehicle id="2" depart="0.00">
        <route edges="JG GJ JL LI IF"/>
    </vehicle>
    <vehicle id="3" depart="0.00">
        <route edges="KJ JM MK KH HE EB BD"/>
    </vehicle>
    <vehicle id="4" depart="0.00">
        <route edges="FG GD DA AC"/>
    </vehicle>
    <vehicle id="5" depart="0.00">
        <route edges="DA AC CG GF"/>
    </vehicle>
    <vehicle id="6" depart="0.00">
        <route edges="AC CG"/>
    </vehicle>
    <vehicle id="7" depart="0.00">
        <route edges="HK KH HD DG GJ"/>
    </vehicle>
    <vehicle id="8" depart="0.00">
        <route edges="DA AD DH HD"/>
    </vehicle>
    <vehicle id="9" depart="0.00">
        <route edges="JL LI IF FC CA AB"/>
    </vehicle>
    <vehicle id="10" depart="0.00">
        <route edges="JL LI IJ"/>
    </vehicle>
    <vehicle id="11" depart="0.00">
        <route edges="EB BA AC CD"/>
    </vehicle>
    <vehicle id="12" depart="0.00">
        <route edges="LJ JM MK KH HE EB"/>
    </vehicle>
    <vehicle id="13" depart="0.00">
        <route edges="BD"/>
    </vehicle>
    <vehicle id="14" depart="0.00">
        <route edges="KG GH HD"/>
    </vehicle>
    <vehicle id="15" depart="0.00">
        <route edges="JL LI IJ JG"/>
    </vehicle>
    <vehicle id="16" depart="0.00">
        <route edges="GH HK KM MJ"/>
    </vehicle>
    <vehicle id="17" depart="0.00">
        <route edges="EH HG GJ"/>
    </vehicle>
    <vehicle id="18" depart="0.00">
        <route edges="JM MK KH HE"/>
    </vehicle>
    <vehicle id="19" depart="0.00">
        <route edges="KH HG GK"/>
    </vehicle>
    <vehicle id="20" depart="0.00">
        <route edges="IJ JG GD DA AD"/>
    </vehicle>
    <vehicle id="21" depart="0.00">
        <route edges="DA AD DE"/>
    </vehicle>
    <vehicle id="22" depart="0.00">
        <route edges="BA AD DB"/>
    </vehicle>
    <vehicle id="23" depart="0.00">
        <route edges="BD DE"/>
    </vehicle>
    <vehicle id="24" depart="0.00">
        <route edges="HG GH HE ED"/>
    </vehicle>
    <vehicle id="25" depart="0.00">
        <route edges="ED DA"/>
    </vehicle>
    <vehicle id="26" depart="0.00">
        <route edges="DC CG GJ JL LI"/>
    </vehicle>
    <vehicle id="27" depart="0.00">
        <route edges="HK KH HE"/>
    </vehicle>
    <vehicle id="28" depart="0.00">
        <route edges="CF FI IL"/>
    </vehicle>
    <vehicle id="29" depart="0.00">
        <route edges="CD DE EH"/>
    </vehicle>
    <vehicle id="30" depart="0.00">
        <route edges="MK KH HG"/>
    </vehicle>
    <vehicle id="31" depart="0.00">
        <route edges="GJ JL LI IF"/>
    </vehicle>
    <vehicle id="32" depart="0.00">
        <route edges="KG GJ JK"/>
    </vehicle>
    <vehicle id="33" depart="0.00">
        <route edges="DA AC"/>
    </vehicle>
    <vehicle id="34" depart="0.00">
        <route edges="DH HD DC"/>
    </vehicle>
    <vehicle id="35" depart="0.00">
        <route edges="DA AC CF FI IL LJ"/>
    </vehicle>
    <vehicle id="36" depart="0.00">
        <route edges="KJ JM MK KH HD DH"/>
    </vehicle>
    <vehicle id="37" depart="0.00">
        <route edges="HK KH HE EH"/>
    </vehicle>
    <vehicle id="38" depart="0.00">
        <route edges="KM MJ JG GC"/>
    </vehicle>
    <vehicle id="39" depart="0.00">
        <route edges="DC CD DB"/>
    </vehicle>
    <vehicle id="40" depart="0.00">
        <route edges="GJ JG GD DC"/>
    </vehicle>
    <vehicle id="41" depart="0.00">
        <route edges="HD DH HK KM"/>
    </vehicle>
    <vehicle id="42" depart="0.00">
        <route edges="FC CD DA"/>
    </vehicle>
    <vehicle id="43" depart="0.00">
        <route edges="MK KH HG GF"/>
    </vehicle>
    <vehicle id="44" depart="0.00">
        <route edges="BD DA AD"/>
    </vehicle>
    <vehicle id="45" depart="0.00">
        <route edges="BE EH HG"/>
    </vehicle>
    <vehicle id="46" depart="0.00">
        <route edges="JL LI IF FG"/>
    </vehicle>
    <vehicle id="47" depart="0.00">
        <route edges="BA AB BE EH"/>
    </vehicle>
    <vehicle id="48" depart="0.00">
        <route edges="MK KH HG GH"/>
    </vehicle>
    <vehicle id="49" depart="0.00">
        <route edges="MJ JM MK KH"/>
    </vehicle>
    <vehicle id="50" depart="0.00">
        <route edges="AB BA AC CF FI IL"/>
    </vehicle>
    <vehicle id="51" depart="0.00">
        <route edges="IF FG GH"/>
    </vehicle>
    <vehicle id="52" depart="0.00">
        <route edges="DC CG GH HG"/>
    </vehicle>
    <vehicle id="53" depart="0.00">
        <route edges="BE EB BA AC CF FG"/>
    </vehicle>
    <vehicle id="54" depart="0.00">
        <route edges="FI IL LJ"/>
    </vehicle>
    <vehicle id="55" depart="0.00">
        <route edges="KJ JG GD DC"/>
    </vehicle>
    <vehicle id="56" depart="0.00">
        <route edges="GF FC CF"/>
    </vehicle>
    <vehicle id="57" depart="0.00">
        <route edges="KM MJ JM MK KH"/>
    </vehicle>
    <vehicle id="58" depart="0.00">
        <route edges="DG GH HG"/>
    </vehicle>
    <vehicle id="59" depart="0.00">
        <route edges="HE ED DC CD"/>
    </vehicle>
    <vehicle id="60" depart="0.00">
        <route edges="JI IJ JG GH"/>
    </vehicle>
    <vehicle id="61" depart="0.00">
        <route edges="JK KG GH"/>
    </vehicle>
    <vehicle id="62" depart="0.00">
        <route edges="AB BD DH"/>
    </vehicle>
    <vehicle id="63" depart="0.00">
        <route edges="AB BD DG GJ JL LI"/>
    </vehicle>
    <vehicle id="64" depart="0.00">
        <route edges="KJ JM"/>
    </vehicle>
    <vehicle id="65" depart="0.00">
        <route edges="DG GD DA AD"/>
    </vehicle>
    <vehicle id="66" depart="0.00">
        <route edges="KJ JI IL LJ"/>
    </vehicle>
    <vehicle id="67" depart="0.00">
        <route edges="BD DG GD"/>
    </vehicle>
    <vehicle id="68" depart="0.00">
        <route edges="BA AC CG GJ JI"/>
    </vehicle>
    <vehicle id="69" depart="0.00">
        <route edges="JI IF FC CA"/>
    </vehicle>
    <vehicle id="70" depart="0.00">
        <route edges="GC CG GJ"/>
    </vehicle>
    <vehicle id="71" depart="0.00">
        <route edges="DC CG GK KH"/>
    </vehicle>
    <vehicle id="72" depart="0.00">
        <route edges="FG GD DA"/>
    </vehicle>
    <vehicle id="73" depart="0.00">
        <route edges="GH HG GJ JG"/>
    </vehicle>
    <vehicle id="74" depart="0.00">
        <route edges="CG GD DG"/>
    </vehicle>
    <vehicle id="75" depart="0.00">
        <route edges="MK KH HK"/>
    </vehicle>
    <vehicle id="76" depart="0.00">
        <route edges="FI IJ JG GF"/>
    </vehicle>
    <vehicle id="77" depart="0.00">
        <route edges="BE ED DA"/>
    </vehicle>
    <vehicle id="78" depart="0.00">
        <route edges="EB BD DH HD"/>
    </vehicle>
    <vehicle id="79" depart="0.00">
        <route edges="DB BD DA"/>
    </vehicle>
    <vehicle id="80" depart="0.00">
        <route edges="BA AD DH HG"/>
    </vehicle>
    <vehicle id="81" depart="0.00">
        <route edges="DA AB BE EH HK KM"/>
    </vehicle>
    <vehicle id="82" depart="0.00">
        <route edges="KH HE EB BA"/>
    </vehicle>
    <vehicle id="83" depart="0.00">
        <route edges="DB BD DG GJ JL LI IF"/>
    </vehicle>
    <vehicle id="84" depart="0.00">
        <route edges="DA AC CA"/>
    </vehicle>
    <vehicle id="85" depart="0.00">
        <route edges="LI IF FG GK"/>
    </vehicle>
    <vehicle id="86" depart="0.00">
        <route edges="GC CG GJ JK"/>
    </vehicle>
    <vehicle id="87" depart="0.00">
        <route edges="JL LI IF FC CG"/>
    </vehicle>
    <vehicle id="88" depart="0.00">
        <route edges="BD DG GF FG"/>
    </vehicle>
    <vehicle id="89" depart="0.00">
        <route edges="FG GC"/>
    </vehicle>
    <vehicle id="90" depart="0.00">
        <route edges="IL LJ JL LI IF"/>
    </vehicle>
    <vehicle id="91" depart="0.00">
        <route edges="MK KH HE EB BD"/>
    </vehicle>
    <vehicle id="92" depart="0.00">
        <route edges="FC CA AB BE EB"/>
    </vehicle>
    <vehicle id="93" depart="0.00">
        <route edges="KH HD DB"/>
    </vehicle>
    <vehicle id="94" depart="0.00">
        <route edges="CG GF FI"/>
    </vehicle>
    <vehicle id="95" depart="0.00">
        <route edges="FG GD DE"/>
    </vehicle>
    <vehicle id="96" depart="0.00">
        <route edges="DB BD DG GJ JL LI"/>
    </vehicle>
    <vehicle id="97" depart="0.00">
        <route edges="FI IJ JK KH"/>
    </vehicle>
    <vehicle id="98" depart="0.00">
        <route edges="GJ JG GD DA AD"/>
    </vehicle>
    <vehicle id="99" depart="0.00">
        <route edges="MK KG"/>
    </vehicle>
    <vehicle id="100" depart="0.00">
        <route edges="MJ JL LI"/>
    </vehicle>
    <vehicle id="101" depart="0.00">
        <route edges="KG GC CD"/>
    </vehicle>
    <vehicle id="102" depart="0.00">
        <route edges="GD DA"/>
    </vehicle>
    <vehicle id="103" depart="0.00">
        <route edges="FC CA AD"/>
    </vehicle>
    <vehicle id="104" depart="0.00">
        <route edges="EH HK KM MJ JM MK"/>
    </vehicle>
    <vehicle id="105" depart="0.00">
        <route edges="DC CG GJ JK"/>
    </vehicle>
    <vehicle id="106" depart="0.00">
        <route edges="FI IF FG"/>
    </vehicle>
    <vehicle id="107" depart="0.00">
        <route edges="LJ JM MK"/>
    </vehicle>
    <vehicle id="108" depart="0.00">
        <route edges="GJ JI IL"/>
    </vehicle>
    <vehicle id="109" depart="0.00">
        <route edges="CD DG"/>
    </vehicle>
    <vehicle id="110" depart="0.00">
        <route edges="MJ JG GK"/>
    </vehicle>
    <vehicle id="111" depart="0.00">
        <route edges="GJ JG"/>
    </vehicle>
    <vehicle id="112" depart="0.00">
        <route edges="AD DH HD"/>
    </vehicle>
    <vehicle id="113" depart="0.00">
        <route edges="GF FI IJ JK KG"/>
    </vehicle>
    <vehicle id="114" depart="0.00">
        <route edges="CD DH HK KM MJ"/>
    </vehicle>
    <vehicle id="115" depart="0.00">
        <route edges="BA AC CF"/>
    </vehicle>
    <vehicle id="116" depart="0.00">
        <route edges="HD DG GJ JL LI IF"/>
    </vehicle>
    <vehicle id="117" depart="0.00">
        <route edges="DB BE"/>
    </vehicle>
    <vehicle id="118" depart="0.00">
        <route edges="KJ JG GD DB"/>
    </vehicle>
    <vehicle id="119" depart="0.00">
        <route edges="HD DH HE"/>
    </vehicle>
    <vehicle id="120" depart="0.00">
        <route edges="FG GH HD"/>
    </vehicle>
    <vehicle id="121" depart="0.00">
        <route edges="GH HG GJ JL LI"/>
    </vehicle>
    <vehicle id="122" depart="0.00">
        <route edges="CG GF FI IL"/>
    </vehicle>
    <vehicle id="123" depart="0.00">
        <route edges="DB BE EH"/>
    </vehicle>
    <vehicle id="124" depart="0.00">
        <route edges="IF FG GD DG"/>
    </vehicle>
    <vehicle id="125" depart="0.00">
        <route edges="DH HK KJ JI"/>
    </vehicle>
    <vehicle id="126" depart="0.00">
        <route edges="BA AC CF FI"/>
    </vehicle>
    <vehicle id="127" depart="0.00">
        <route edges="MK"/>
    </vehicle>
    <vehicle id="128" depart="0.00">
        <route edges="BA AD DA"/>
    </vehicle>
    <vehicle id="129" depart="0.00">
        <route edges="DC CG GJ JL LI"/>
    </vehicle>
    <vehicle id="130" depart="0.00">
        <route edges="KJ"/>
    </vehicle>
    <vehicle id="131" depart="0.00">
        <route edges="ED DC CD"/>
    </vehicle>
    <vehicle id="132" depart="0.00">
        <route edges="KG GF FI IJ"/>
    </vehicle>
    <vehicle id="133" depart="0.00">
        <route edges="HE ED DG GJ JM MK"/>
    </vehicle>
    <vehicle id="134" depart="0.00">
        <route edges="HK KH HE EB BA AB"/>
    </vehicle>
    <vehicle id="135" depart="0.00">
        <route edges="JM MK KH HD DG"/>
    </vehicle>
    <vehicle id="136" depart="0.00">
        <route edges="HK KJ JI IL LJ"/>
    </vehicle>
    <vehicle id="137" depart="0.00">
        <route edges="CA AB BE"/>
    </vehicle>
    <vehicle id="138" depart="0.00">
        <route edges="BE ED DG GJ"/>
    </vehicle>
    <vehicle id="139" depart="0.00">
        <route edges="DE EH HE"/>
    </vehicle>
    <vehicle id="140" depart="0.00">
        <route edges="IL LJ JG GC CG"/>
    </vehicle>
    <vehicle id="141" depart="0.00">
        <route edges="HG GD DC"/>
    </vehicle>
    <vehicle id="142" depart="0.00">
        <route edges="GD DH HK KM"/>
    </vehicle>
    <vehicle id="143" depart="0.00">
        <route edges="KG GD DB BD"/>
    </vehicle>
    <vehicle id="144" depart="0.00">
        <route edges="FG GD DE"/>
    </vehicle>
    <vehicle id="145" depart="0.00">
        <route edges="AB BD DG GJ JK"/>
    </vehicle>
    <vehicle id="146" depart="0.00">
        <route edges="HG GD DC"/>
    </vehicle>
    <vehicle id="147" depart="0.00">
        <route edges="JG GJ"/>
    </vehicle>
    <vehicle id="148" depart="0.00">
        <route edges="FG GC CA AB"/>
    </vehicle>
    <vehicle id="149" depart="0.00">
        <route edges="BA AC CG GK KJ"/>
    </vehicle>
</routes>
