<?xml version="1.0" encoding="UTF-8"?>

<!-- generated on 2023-06-27 08:49:16 by Eclipse SUMO netconvert Version 1.16.0
<configuration xmlns:xsi="http://www.w3.org/2001/XMLSchema-instance" xsi:noNamespaceSchemaLocation="http://sumo.dlr.de/xsd/netconvertConfiguration.xsd">

    <input>
        <node-files value="65-PIN3/src/network_files/ow/ow.nod.xml"/>
        <edge-files value="65-PIN3/src/network_files/ow/ow.edg-modified.xml"/>
    </input>

    <output>
        <output-file value="65-PIN3/src/network_files/net.net.xml"/>
    </output>

</configuration>
-->

<net version="1.16" junctionCornerDetail="5" limitTurnSpeed="5.50" xmlns:xsi="http://www.w3.org/2001/XMLSchema-instance" xsi:noNamespaceSchemaLocation="http://sumo.dlr.de/xsd/net_file.xsd">

    <location netOffset="0.00,200.00" convBoundary="0.00,0.00,400.00,200.00" origBoundary="0.00,-200.00,400.00,0.00" projParameter="!"/>

    <edge id=":A_0" function="internal">
        <lane id=":A_0_0" index="0" speed="9.73" length="21.49" shape="11.73,201.60 5.90,200.77 1.73,198.27 -0.77,194.10 -1.60,188.27"/>
    </edge>
    <edge id=":A_1" function="internal">
        <lane id=":A_1_0" index="0" speed="7.42" length="9.49" shape="11.73,201.60 5.59,200.91 2.92,198.94"/>
    </edge>
    <edge id=":A_2" function="internal">
        <lane id=":A_2_0" index="0" speed="3.65" length="1.44" shape="11.73,201.60 10.53,200.80"/>
    </edge>
    <edge id=":A_9" function="internal">
        <lane id=":A_9_0" index="0" speed="7.42" length="9.82" shape="2.92,198.94 2.79,198.84 3.31,195.40 7.16,190.58"/>
    </edge>
    <edge id=":A_10" function="internal">
        <lane id=":A_10_0" index="0" speed="3.65" length="3.23" shape="10.53,200.80 10.13,200.00 10.53,199.20 11.73,198.40"/>
    </edge>
    <edge id=":A_3" function="internal">
        <lane id=":A_3_0" index="0" speed="5.47" length="9.74" shape="9.42,192.84 7.48,195.27 7.22,197.01 8.63,198.05 11.73,198.40"/>
    </edge>
    <edge id=":A_4" function="internal">
        <lane id=":A_4_0" index="0" speed="7.42" length="19.31" shape="9.42,192.84 4.60,196.69 1.16,197.21 -0.91,194.41 -1.60,188.27"/>
    </edge>
    <edge id=":A_5" function="internal">
        <lane id=":A_5_0" index="0" speed="3.65" length="4.67" shape="9.42,192.84 8.01,193.12 7.16,192.84 6.88,191.99 7.16,190.58"/>
    </edge>
    <edge id=":A_6" function="internal">
        <lane id=":A_6_0" index="0" speed="5.47" length="9.74" shape="1.60,188.27 1.95,191.37 2.99,192.78 4.73,192.52 7.16,190.58"/>
    </edge>
    <edge id=":A_7" function="internal">
        <lane id=":A_7_0" index="0" speed="8.54" length="16.33" shape="1.60,188.27 2.23,192.70 4.13,195.87 7.30,197.77 11.73,198.40"/>
    </edge>
    <edge id=":A_8" function="internal">
        <lane id=":A_8_0" index="0" speed="3.65" length="1.30" shape="1.60,188.27 0.88,189.36"/>
    </edge>
    <edge id=":A_11" function="internal">
        <lane id=":A_11_0" index="0" speed="3.65" length="3.37" shape="0.88,189.36 0.80,189.47 0.00,189.87 -0.80,189.47 -1.60,188.27"/>
    </edge>
    <edge id=":B_0" function="internal">
        <lane id=":B_0_0" index="0" speed="14.37" length="19.24" shape="-1.60,107.20 -1.05,103.21 0.59,99.11 3.33,94.90 7.16,90.58"/>
    </edge>
    <edge id=":B_1" function="internal">
        <lane id=":B_1_0" index="0" speed="8.94" length="4.59" shape="-1.60,107.20 -0.77,103.35 -0.33,102.87"/>
    </edge>
    <edge id=":B_2" function="internal">
        <lane id=":B_2_0" index="0" speed="3.65" length="1.44" shape="-1.60,107.20 -0.80,106.00"/>
    </edge>
    <edge id=":B_9" function="internal">
        <lane id=":B_9_0" index="0" speed="8.94" length="13.40" shape="-0.33,102.87 1.73,100.60 5.90,98.95 11.73,98.40"/>
    </edge>
    <edge id=":B_10" function="internal">
        <lane id=":B_10_0" index="0" speed="3.65" length="3.23" shape="-0.80,106.00 0.00,105.60 0.80,106.00 1.60,107.20"/>
    </edge>
    <edge id=":B_3" function="internal">
        <lane id=":B_3_0" index="0" speed="7.65" length="12.89" shape="11.73,101.60 7.30,101.95 4.13,103.00 2.23,104.75 1.60,107.20"/>
    </edge>
    <edge id=":B_4" function="internal">
        <lane id=":B_4_0" index="0" speed="7.42" length="19.31" shape="11.73,101.60 5.59,100.91 2.79,98.84 3.31,95.40 7.16,90.58"/>
    </edge>
    <edge id=":B_5" function="internal">
        <lane id=":B_5_0" index="0" speed="3.65" length="4.67" shape="11.73,101.60 10.53,100.80 10.13,100.00 10.53,99.20 11.73,98.40"/>
    </edge>
    <edge id=":B_6" function="internal">
        <lane id=":B_6_0" index="0" speed="5.47" length="9.74" shape="9.42,92.84 7.48,95.27 7.22,97.01 8.63,98.05 11.73,98.40"/>
    </edge>
    <edge id=":B_7" function="internal">
        <lane id=":B_7_0" index="0" speed="13.42" length="16.74" shape="9.42,92.84 6.00,96.67 3.56,100.34 2.09,103.85 1.60,107.20"/>
    </edge>
    <edge id=":B_8" function="internal">
        <lane id=":B_8_0" index="0" speed="3.65" length="1.44" shape="9.42,92.84 8.01,93.12"/>
    </edge>
    <edge id=":B_11" function="internal">
        <lane id=":B_11_0" index="0" speed="3.65" length="3.23" shape="8.01,93.12 7.16,92.84 6.88,91.99 7.16,90.58"/>
    </edge>
    <edge id=":C_0" function="internal">
        <lane id=":C_0_0" index="0" speed="60.00" length="18.93" shape="111.73,201.60 92.80,201.60"/>
    </edge>
    <edge id=":C_1" function="internal">
        <lane id=":C_1_0" index="0" speed="9.73" length="5.01" shape="111.73,201.60 106.76,200.89"/>
    </edge>
    <edge id=":C_2" function="internal">
        <lane id=":C_2_0" index="0" speed="7.42" length="6.00" shape="111.73,201.60 105.76,200.93"/>
    </edge>
    <edge id=":C_3" function="internal">
        <lane id=":C_3_0" index="0" speed="3.65" length="1.44" shape="111.73,201.60 110.53,200.80"/>
    </edge>
    <edge id=":C_16" function="internal">
        <lane id=":C_16_0" index="0" speed="9.73" length="16.48" shape="106.76,200.89 105.90,200.77 101.73,198.27 99.23,194.10 98.40,188.27"/>
    </edge>
    <edge id=":C_17" function="internal">
        <lane id=":C_17_0" index="0" speed="7.42" length="13.30" shape="105.76,200.93 105.59,200.91 102.79,198.84 103.31,195.40 107.16,190.58"/>
    </edge>
    <edge id=":C_18" function="internal">
        <lane id=":C_18_0" index="0" speed="3.65" length="3.23" shape="110.53,200.80 110.13,200.00 110.53,199.20 111.73,198.40"/>
    </edge>
    <edge id=":C_4" function="internal">
        <lane id=":C_4_0" index="0" speed="5.47" length="9.74" shape="109.42,192.84 107.48,195.27 107.22,197.01 108.63,198.05 111.73,198.40"/>
    </edge>
    <edge id=":C_5" function="internal">
        <lane id=":C_5_0" index="0" speed="14.37" length="19.24" shape="109.42,192.84 105.10,196.67 100.89,199.41 96.79,201.05 92.80,201.60"/>
    </edge>
    <edge id=":C_6" function="internal">
        <lane id=":C_6_0" index="0" speed="7.42" length="19.31" shape="109.42,192.84 104.60,196.69 101.16,197.21 99.09,194.41 98.40,188.27"/>
    </edge>
    <edge id=":C_7" function="internal">
        <lane id=":C_7_0" index="0" speed="3.65" length="4.67" shape="109.42,192.84 108.01,193.12 107.16,192.84 106.88,191.99 107.16,190.58"/>
    </edge>
    <edge id=":C_8" function="internal">
        <lane id=":C_8_0" index="0" speed="5.47" length="9.74" shape="101.60,188.27 101.95,191.37 102.99,192.78 104.73,192.52 107.16,190.58"/>
    </edge>
    <edge id=":C_9" function="internal">
        <lane id=":C_9_0" index="0" speed="8.54" length="16.33" shape="101.60,188.27 102.23,192.70 104.13,195.87 107.30,197.77 111.73,198.40"/>
    </edge>
    <edge id=":C_10" function="internal">
        <lane id=":C_10_0" index="0" speed="8.94" length="17.99" shape="101.60,188.27 101.05,194.10 99.40,198.27 96.65,200.77 92.80,201.60"/>
    </edge>
    <edge id=":C_11" function="internal">
        <lane id=":C_11_0" index="0" speed="3.65" length="4.67" shape="101.60,188.27 100.80,189.47 100.00,189.87 99.20,189.47 98.40,188.27"/>
    </edge>
    <edge id=":C_12" function="internal">
        <lane id=":C_12_0" index="0" speed="7.65" length="12.89" shape="92.80,198.40 95.25,197.77 97.00,195.87 98.05,192.70 98.40,188.27"/>
    </edge>
    <edge id=":C_13" function="internal">
        <lane id=":C_13_0" index="0" speed="13.42" length="16.74" shape="92.80,198.40 96.15,197.91 99.66,196.44 103.33,194.00 107.16,190.58"/>
    </edge>
    <edge id=":C_14" function="internal">
        <lane id=":C_14_0" index="0" speed="60.00" length="18.93" shape="92.80,198.40 111.73,198.40"/>
    </edge>
    <edge id=":C_15" function="internal">
        <lane id=":C_15_0" index="0" speed="3.65" length="1.44" shape="92.80,198.40 94.00,199.20"/>
    </edge>
    <edge id=":C_19" function="internal">
        <lane id=":C_19_0" index="0" speed="3.65" length="3.23" shape="94.00,199.20 94.40,200.00 94.00,200.80 92.80,201.60"/>
    </edge>
    <edge id=":D_0" function="internal">
        <lane id=":D_0_0" index="0" speed="5.47" length="9.74" shape="98.40,111.73 98.05,108.63 97.01,107.22 95.27,107.48 92.84,109.42"/>
    </edge>
    <edge id=":D_1" function="internal">
        <lane id=":D_1_0" index="0" speed="8.54" length="16.33" shape="98.40,111.73 97.77,107.30 95.87,104.13 92.70,102.23 88.27,101.60"/>
    </edge>
    <edge id=":D_2" function="internal">
        <lane id=":D_2_0" index="0" speed="60.00" length="23.45" shape="98.40,111.73 98.40,88.27"/>
    </edge>
    <edge id=":D_3" function="internal">
        <lane id=":D_3_0" index="0" speed="15.85" length="5.99" shape="98.40,111.73 98.95,105.76"/>
    </edge>
    <edge id=":D_4" function="internal">
        <lane id=":D_4_0" index="0" speed="9.73" length="5.01" shape="98.40,111.73 99.11,106.76"/>
    </edge>
    <edge id=":D_5" function="internal">
        <lane id=":D_5_0" index="0" speed="3.65" length="1.44" shape="98.40,111.73 99.20,110.53"/>
    </edge>
    <edge id=":D_36" function="internal">
        <lane id=":D_36_0" index="0" speed="15.85" length="17.50" shape="98.95,105.76 100.59,100.24 103.33,95.18 107.16,90.58"/>
    </edge>
    <edge id=":D_37" function="internal">
        <lane id=":D_37_0" index="0" speed="9.73" length="16.48" shape="99.11,106.76 99.23,105.90 101.73,101.73 105.90,99.23 111.73,98.40"/>
    </edge>
    <edge id=":D_38" function="internal">
        <lane id=":D_38_0" index="0" speed="3.65" length="3.23" shape="99.20,110.53 100.00,110.13 100.80,110.53 101.60,111.73"/>
    </edge>
    <edge id=":D_6" function="internal">
        <lane id=":D_6_0" index="0" speed="8.54" length="16.33" shape="111.73,101.60 107.30,102.23 104.13,104.13 102.23,107.30 101.60,111.73"/>
    </edge>
    <edge id=":D_7" function="internal">
        <lane id=":D_7_0" index="0" speed="14.99" length="20.98" shape="111.73,101.60 106.40,102.09 101.47,103.56 96.95,106.00 92.84,109.42"/>
    </edge>
    <edge id=":D_8" function="internal">
        <lane id=":D_8_0" index="0" speed="60.00" length="23.45" shape="111.73,101.60 88.27,101.60"/>
    </edge>
    <edge id=":D_9" function="internal">
        <lane id=":D_9_0" index="0" speed="9.73" length="21.49" shape="111.73,101.60 105.90,100.77 101.73,98.27 99.23,94.10 98.40,88.27"/>
    </edge>
    <edge id=":D_10" function="internal">
        <lane id=":D_10_0" index="0" speed="7.42" length="19.31" shape="111.73,101.60 105.59,100.91 102.79,98.84 103.31,95.40 107.16,90.58"/>
    </edge>
    <edge id=":D_11" function="internal">
        <lane id=":D_11_0" index="0" speed="3.65" length="4.67" shape="111.73,101.60 110.53,100.80 110.13,100.00 110.53,99.20 111.73,98.40"/>
    </edge>
    <edge id=":D_12" function="internal">
        <lane id=":D_12_0" index="0" speed="5.47" length="9.74" shape="109.42,92.84 107.48,95.27 107.22,97.01 108.63,98.05 111.73,98.40"/>
    </edge>
    <edge id=":D_13" function="internal">
        <lane id=":D_13_0" index="0" speed="14.99" length="20.98" shape="109.42,92.84 106.00,96.95 103.56,101.47 102.09,106.40 101.60,111.73"/>
    </edge>
    <edge id=":D_14" function="internal">
        <lane id=":D_14_0" index="0" speed="60.00" length="23.45" shape="109.42,92.84 92.84,109.42"/>
    </edge>
    <edge id=":D_15" function="internal">
        <lane id=":D_15_0" index="0" speed="15.85" length="23.49" shape="109.42,92.84 104.82,96.67 99.76,99.41 94.24,101.05 88.27,101.60"/>
    </edge>
    <edge id=":D_16" function="internal">
        <lane id=":D_16_0" index="0" speed="7.42" length="19.31" shape="109.42,92.84 104.60,96.69 101.16,97.21 99.09,94.41 98.40,88.27"/>
    </edge>
    <edge id=":D_17" function="internal">
        <lane id=":D_17_0" index="0" speed="3.65" length="4.67" shape="109.42,92.84 108.01,93.12 107.16,92.84 106.88,91.99 107.16,90.58"/>
    </edge>
    <edge id=":D_18" function="internal">
        <lane id=":D_18_0" index="0" speed="5.47" length="9.74" shape="101.60,88.27 101.95,91.37 102.99,92.78 104.73,92.52 107.16,90.58"/>
    </edge>
    <edge id=":D_19" function="internal">
        <lane id=":D_19_0" index="0" speed="8.54" length="16.33" shape="101.60,88.27 102.23,92.70 104.13,95.87 107.30,97.77 111.73,98.40"/>
    </edge>
    <edge id=":D_20" function="internal">
        <lane id=":D_20_0" index="0" speed="60.00" length="23.45" shape="101.60,88.27 101.60,111.73"/>
    </edge>
    <edge id=":D_21" function="internal">
        <lane id=":D_21_0" index="0" speed="15.85" length="5.99" shape="101.60,88.27 101.05,94.24"/>
    </edge>
    <edge id=":D_22" function="internal">
        <lane id=":D_22_0" index="0" speed="9.73" length="5.01" shape="101.60,88.27 100.89,93.24"/>
    </edge>
    <edge id=":D_23" function="internal">
        <lane id=":D_23_0" index="0" speed="3.65" length="1.44" shape="101.60,88.27 100.80,89.47"/>
    </edge>
    <edge id=":D_39" function="internal">
        <lane id=":D_39_0" index="0" speed="15.85" length="17.50" shape="101.05,94.24 99.41,99.76 96.67,104.82 92.84,109.42"/>
    </edge>
    <edge id=":D_40" function="internal">
        <lane id=":D_40_0" index="0" speed="9.73" length="16.48" shape="100.89,93.24 100.77,94.10 98.27,98.27 94.10,100.77 88.27,101.60"/>
    </edge>
    <edge id=":D_41" function="internal">
        <lane id=":D_41_0" index="0" speed="3.65" length="3.23" shape="100.80,89.47 100.00,89.87 99.20,89.47 98.40,88.27"/>
    </edge>
    <edge id=":D_24" function="internal">
        <lane id=":D_24_0" index="0" speed="8.54" length="16.33" shape="88.27,98.40 92.70,97.77 95.87,95.87 97.77,92.70 98.40,88.27"/>
    </edge>
    <edge id=":D_25" function="internal">
        <lane id=":D_25_0" index="0" speed="14.99" length="20.98" shape="88.27,98.40 93.60,97.91 98.53,96.44 103.05,94.00 107.16,90.58"/>
    </edge>
    <edge id=":D_26" function="internal">
        <lane id=":D_26_0" index="0" speed="60.00" length="23.45" shape="88.27,98.40 111.73,98.40"/>
    </edge>
    <edge id=":D_27" function="internal">
        <lane id=":D_27_0" index="0" speed="9.73" length="21.49" shape="88.27,98.40 94.10,99.23 98.27,101.73 100.77,105.90 101.60,111.73"/>
    </edge>
    <edge id=":D_28" function="internal">
        <lane id=":D_28_0" index="0" speed="7.42" length="19.31" shape="88.27,98.40 94.41,99.09 97.21,101.16 96.69,104.60 92.84,109.42"/>
    </edge>
    <edge id=":D_29" function="internal">
        <lane id=":D_29_0" index="0" speed="3.65" length="4.67" shape="88.27,98.40 89.47,99.20 89.87,100.00 89.47,100.80 88.27,101.60"/>
    </edge>
    <edge id=":D_30" function="internal">
        <lane id=":D_30_0" index="0" speed="5.47" length="9.74" shape="90.58,107.16 92.52,104.73 92.78,102.99 91.37,101.95 88.27,101.60"/>
    </edge>
    <edge id=":D_31" function="internal">
        <lane id=":D_31_0" index="0" speed="14.99" length="20.98" shape="90.58,107.16 94.00,103.05 96.44,98.53 97.91,93.60 98.40,88.27"/>
    </edge>
    <edge id=":D_32" function="internal">
        <lane id=":D_32_0" index="0" speed="60.00" length="23.45" shape="90.58,107.16 107.16,90.58"/>
    </edge>
    <edge id=":D_33" function="internal">
        <lane id=":D_33_0" index="0" speed="15.85" length="23.49" shape="90.58,107.16 95.18,103.33 100.24,100.59 105.76,98.95 111.73,98.40"/>
    </edge>
    <edge id=":D_34" function="internal">
        <lane id=":D_34_0" index="0" speed="7.42" length="19.31" shape="90.58,107.16 95.40,103.31 98.84,102.79 100.91,105.59 101.60,111.73"/>
    </edge>
    <edge id=":D_35" function="internal">
        <lane id=":D_35_0" index="0" speed="3.65" length="4.67" shape="90.58,107.16 91.99,106.88 92.84,107.16 93.12,108.01 92.84,109.42"/>
    </edge>
    <edge id=":E_0" function="internal">
        <lane id=":E_0_0" index="0" speed="5.47" length="9.74" shape="98.40,11.73 98.05,8.63 97.01,7.22 95.27,7.48 92.84,9.42"/>
    </edge>
    <edge id=":E_1" function="internal">
        <lane id=":E_1_0" index="0" speed="8.94" length="17.99" shape="98.40,11.73 98.95,5.90 100.60,1.73 103.35,-0.77 107.20,-1.60"/>
    </edge>
    <edge id=":E_2" function="internal">
        <lane id=":E_2_0" index="0" speed="3.65" length="4.67" shape="98.40,11.73 99.20,10.53 100.00,10.13 100.80,10.53 101.60,11.73"/>
    </edge>
    <edge id=":E_3" function="internal">
        <lane id=":E_3_0" index="0" speed="7.65" length="12.89" shape="107.20,1.60 104.75,2.23 103.00,4.13 101.95,7.30 101.60,11.73"/>
    </edge>
    <edge id=":E_4" function="internal">
        <lane id=":E_4_0" index="0" speed="13.42" length="16.74" shape="107.20,1.60 103.85,2.09 100.34,3.56 96.67,6.00 92.84,9.42"/>
    </edge>
    <edge id=":E_5" function="internal">
        <lane id=":E_5_0" index="0" speed="3.65" length="1.31" shape="107.20,1.60 106.11,0.87"/>
    </edge>
    <edge id=":E_9" function="internal">
        <lane id=":E_9_0" index="0" speed="3.65" length="3.37" shape="106.11,0.87 106.00,0.80 105.60,0.00 106.00,-0.80 107.20,-1.60"/>
    </edge>
    <edge id=":E_6" function="internal">
        <lane id=":E_6_0" index="0" speed="14.37" length="19.24" shape="90.58,7.16 94.90,3.33 99.11,0.59 103.21,-1.05 107.20,-1.60"/>
    </edge>
    <edge id=":E_7" function="internal">
        <lane id=":E_7_0" index="0" speed="7.42" length="6.93" shape="90.58,7.16 95.40,3.31 96.15,3.20"/>
    </edge>
    <edge id=":E_8" function="internal">
        <lane id=":E_8_0" index="0" speed="3.65" length="1.44" shape="90.58,7.16 91.99,6.88"/>
    </edge>
    <edge id=":E_10" function="internal">
        <lane id=":E_10_0" index="0" speed="7.42" length="12.37" shape="96.15,3.20 98.84,2.79 100.91,5.59 101.60,11.73"/>
    </edge>
    <edge id=":E_11" function="internal">
        <lane id=":E_11_0" index="0" speed="3.65" length="3.23" shape="91.99,6.88 92.84,7.16 93.12,8.01 92.84,9.42"/>
    </edge>
    <edge id=":F_0" function="internal">
        <lane id=":F_0_0" index="0" speed="60.00" length="18.93" shape="211.73,201.60 192.80,201.60"/>
    </edge>
    <edge id=":F_1" function="internal">
        <lane id=":F_1_0" index="0" speed="9.73" length="5.01" shape="211.73,201.60 206.76,200.89"/>
    </edge>
    <edge id=":F_2" function="internal">
        <lane id=":F_2_0" index="0" speed="7.42" length="6.00" shape="211.73,201.60 205.76,200.93"/>
    </edge>
    <edge id=":F_3" function="internal">
        <lane id=":F_3_0" index="0" speed="3.65" length="1.44" shape="211.73,201.60 210.53,200.80"/>
    </edge>
    <edge id=":F_16" function="internal">
        <lane id=":F_16_0" index="0" speed="9.73" length="16.48" shape="206.76,200.89 205.90,200.77 201.73,198.27 199.23,194.10 198.40,188.27"/>
    </edge>
    <edge id=":F_17" function="internal">
        <lane id=":F_17_0" index="0" speed="7.42" length="13.30" shape="205.76,200.93 205.59,200.91 202.79,198.84 203.31,195.40 207.16,190.58"/>
    </edge>
    <edge id=":F_18" function="internal">
        <lane id=":F_18_0" index="0" speed="3.65" length="3.23" shape="210.53,200.80 210.13,200.00 210.53,199.20 211.73,198.40"/>
    </edge>
    <edge id=":F_4" function="internal">
        <lane id=":F_4_0" index="0" speed="5.47" length="9.74" shape="209.42,192.84 207.48,195.27 207.22,197.01 208.63,198.05 211.73,198.40"/>
    </edge>
    <edge id=":F_5" function="internal">
        <lane id=":F_5_0" index="0" speed="14.37" length="19.24" shape="209.42,192.84 205.10,196.67 200.89,199.41 196.79,201.05 192.80,201.60"/>
    </edge>
    <edge id=":F_6" function="internal">
        <lane id=":F_6_0" index="0" speed="7.42" length="19.31" shape="209.42,192.84 204.60,196.69 201.16,197.21 199.09,194.41 198.40,188.27"/>
    </edge>
    <edge id=":F_7" function="internal">
        <lane id=":F_7_0" index="0" speed="3.65" length="4.67" shape="209.42,192.84 208.01,193.12 207.16,192.84 206.88,191.99 207.16,190.58"/>
    </edge>
    <edge id=":F_8" function="internal">
        <lane id=":F_8_0" index="0" speed="5.47" length="9.74" shape="201.60,188.27 201.95,191.37 202.99,192.78 204.73,192.52 207.16,190.58"/>
    </edge>
    <edge id=":F_9" function="internal">
        <lane id=":F_9_0" index="0" speed="8.54" length="16.33" shape="201.60,188.27 202.23,192.70 204.13,195.87 207.30,197.77 211.73,198.40"/>
    </edge>
    <edge id=":F_10" function="internal">
        <lane id=":F_10_0" index="0" speed="8.94" length="17.99" shape="201.60,188.27 201.05,194.10 199.40,198.27 196.65,200.77 192.80,201.60"/>
    </edge>
    <edge id=":F_11" function="internal">
        <lane id=":F_11_0" index="0" speed="3.65" length="4.67" shape="201.60,188.27 200.80,189.47 200.00,189.87 199.20,189.47 198.40,188.27"/>
    </edge>
    <edge id=":F_12" function="internal">
        <lane id=":F_12_0" index="0" speed="7.65" length="12.89" shape="192.80,198.40 195.25,197.77 197.00,195.87 198.05,192.70 198.40,188.27"/>
    </edge>
    <edge id=":F_13" function="internal">
        <lane id=":F_13_0" index="0" speed="13.42" length="16.74" shape="192.80,198.40 196.15,197.91 199.66,196.44 203.33,194.00 207.16,190.58"/>
    </edge>
    <edge id=":F_14" function="internal">
        <lane id=":F_14_0" index="0" speed="60.00" length="18.93" shape="192.80,198.40 211.73,198.40"/>
    </edge>
    <edge id=":F_15" function="internal">
        <lane id=":F_15_0" index="0" speed="3.65" length="1.44" shape="192.80,198.40 194.00,199.20"/>
    </edge>
    <edge id=":F_19" function="internal">
        <lane id=":F_19_0" index="0" speed="3.65" length="3.23" shape="194.00,199.20 194.40,200.00 194.00,200.80 192.80,201.60"/>
    </edge>
    <edge id=":G_0" function="internal">
        <lane id=":G_0_0" index="0" speed="5.47" length="9.74" shape="198.40,111.73 198.05,108.63 197.01,107.22 195.27,107.48 192.84,109.42"/>
    </edge>
    <edge id=":G_1" function="internal">
        <lane id=":G_1_0" index="0" speed="8.54" length="16.33" shape="198.40,111.73 197.77,107.30 195.87,104.13 192.70,102.23 188.27,101.60"/>
    </edge>
    <edge id=":G_2" function="internal">
        <lane id=":G_2_0" index="0" speed="60.00" length="23.45" shape="198.40,111.73 198.40,88.27"/>
    </edge>
    <edge id=":G_3" function="internal">
        <lane id=":G_3_0" index="0" speed="15.85" length="5.99" shape="198.40,111.73 198.95,105.76"/>
    </edge>
    <edge id=":G_4" function="internal">
        <lane id=":G_4_0" index="0" speed="9.73" length="5.01" shape="198.40,111.73 199.11,106.76"/>
    </edge>
    <edge id=":G_5" function="internal">
        <lane id=":G_5_0" index="0" speed="7.42" length="6.00" shape="198.40,111.73 199.07,105.76"/>
    </edge>
    <edge id=":G_6" function="internal">
        <lane id=":G_6_0" index="0" speed="3.65" length="1.44" shape="198.40,111.73 199.20,110.53"/>
    </edge>
    <edge id=":G_49" function="internal">
        <lane id=":G_49_0" index="0" speed="15.85" length="17.50" shape="198.95,105.76 200.59,100.24 203.33,95.18 207.16,90.58"/>
    </edge>
    <edge id=":G_50" function="internal">
        <lane id=":G_50_0" index="0" speed="9.73" length="16.48" shape="199.11,106.76 199.23,105.90 201.73,101.73 205.90,99.23 211.73,98.40"/>
    </edge>
    <edge id=":G_51" function="internal">
        <lane id=":G_51_0" index="0" speed="7.42" length="13.30" shape="199.07,105.76 199.09,105.59 201.16,102.79 204.60,103.31 209.42,107.16"/>
    </edge>
    <edge id=":G_52" function="internal">
        <lane id=":G_52_0" index="0" speed="3.65" length="3.23" shape="199.20,110.53 200.00,110.13 200.80,110.53 201.60,111.73"/>
    </edge>
    <edge id=":G_7" function="internal">
        <lane id=":G_7_0" index="0" speed="5.47" length="9.74" shape="207.16,109.42 204.73,107.48 202.99,107.22 201.95,108.63 201.60,111.73"/>
    </edge>
    <edge id=":G_8" function="internal">
        <lane id=":G_8_0" index="0" speed="8.54" length="16.33" shape="207.16,109.42 203.58,106.74 200.00,105.84 196.42,106.74 192.84,109.42"/>
    </edge>
    <edge id=":G_9" function="internal">
        <lane id=":G_9_0" index="0" speed="14.99" length="20.98" shape="207.16,109.42 203.05,106.00 198.53,103.56 193.60,102.09 188.27,101.60"/>
    </edge>
    <edge id=":G_10" function="internal">
        <lane id=":G_10_0" index="0" speed="15.85" length="23.49" shape="207.16,109.42 203.33,104.82 200.59,99.76 198.95,94.24 198.40,88.27"/>
    </edge>
    <edge id=":G_11" function="internal">
        <lane id=":G_11_0" index="0" speed="9.73" length="21.49" shape="207.16,109.42 203.63,104.71 202.45,100.00 203.63,95.29 207.16,90.58"/>
    </edge>
    <edge id=":G_12" function="internal">
        <lane id=":G_12_0" index="0" speed="7.42" length="19.31" shape="207.16,109.42 203.31,104.60 202.79,101.16 205.59,99.09 211.73,98.40"/>
    </edge>
    <edge id=":G_13" function="internal">
        <lane id=":G_13_0" index="0" speed="3.65" length="4.67" shape="207.16,109.42 206.88,108.01 207.16,107.16 208.01,106.88 209.42,107.16"/>
    </edge>
    <edge id=":G_14" function="internal">
        <lane id=":G_14_0" index="0" speed="5.47" length="9.74" shape="211.73,101.60 208.63,101.95 207.22,102.99 207.48,104.73 209.42,107.16"/>
    </edge>
    <edge id=":G_15" function="internal">
        <lane id=":G_15_0" index="0" speed="8.54" length="16.33" shape="211.73,101.60 207.30,102.23 204.13,104.13 202.23,107.30 201.60,111.73"/>
    </edge>
    <edge id=":G_16" function="internal">
        <lane id=":G_16_0" index="0" speed="14.99" length="20.98" shape="211.73,101.60 206.40,102.09 201.47,103.56 196.95,106.00 192.84,109.42"/>
    </edge>
    <edge id=":G_17" function="internal">
        <lane id=":G_17_0" index="0" speed="60.00" length="23.45" shape="211.73,101.60 188.27,101.60"/>
    </edge>
    <edge id=":G_18" function="internal">
        <lane id=":G_18_0" index="0" speed="9.73" length="21.49" shape="211.73,101.60 205.90,100.77 201.73,98.27 199.23,94.10 198.40,88.27"/>
    </edge>
    <edge id=":G_19" function="internal">
        <lane id=":G_19_0" index="0" speed="7.42" length="19.31" shape="211.73,101.60 205.59,100.91 202.79,98.84 203.31,95.40 207.16,90.58"/>
    </edge>
    <edge id=":G_20" function="internal">
        <lane id=":G_20_0" index="0" speed="3.65" length="4.67" shape="211.73,101.60 210.53,100.80 210.13,100.00 210.53,99.20 211.73,98.40"/>
    </edge>
    <edge id=":G_21" function="internal">
        <lane id=":G_21_0" index="0" speed="5.47" length="9.74" shape="209.42,92.84 207.48,95.27 207.22,97.01 208.63,98.05 211.73,98.40"/>
    </edge>
    <edge id=":G_22" function="internal">
        <lane id=":G_22_0" index="0" speed="8.54" length="16.33" shape="209.42,92.84 206.74,96.42 205.84,100.00 206.74,103.58 209.42,107.16"/>
    </edge>
    <edge id=":G_23" function="internal">
        <lane id=":G_23_0" index="0" speed="14.99" length="20.98" shape="209.42,92.84 206.00,96.95 203.56,101.47 202.09,106.40 201.60,111.73"/>
    </edge>
    <edge id=":G_24" function="internal">
        <lane id=":G_24_0" index="0" speed="60.00" length="23.45" shape="209.42,92.84 192.84,109.42"/>
    </edge>
    <edge id=":G_25" function="internal">
        <lane id=":G_25_0" index="0" speed="15.85" length="23.49" shape="209.42,92.84 204.82,96.67 199.76,99.41 194.24,101.05 188.27,101.60"/>
    </edge>
    <edge id=":G_26" function="internal">
        <lane id=":G_26_0" index="0" speed="7.42" length="19.31" shape="209.42,92.84 204.60,96.69 201.16,97.21 199.09,94.41 198.40,88.27"/>
    </edge>
    <edge id=":G_27" function="internal">
        <lane id=":G_27_0" index="0" speed="3.65" length="4.67" shape="209.42,92.84 208.01,93.12 207.16,92.84 206.88,91.99 207.16,90.58"/>
    </edge>
    <edge id=":G_28" function="internal">
        <lane id=":G_28_0" index="0" speed="5.47" length="9.74" shape="201.60,88.27 201.95,91.37 202.99,92.78 204.73,92.52 207.16,90.58"/>
    </edge>
    <edge id=":G_29" function="internal">
        <lane id=":G_29_0" index="0" speed="8.54" length="16.33" shape="201.60,88.27 202.23,92.70 204.13,95.87 207.30,97.77 211.73,98.40"/>
    </edge>
    <edge id=":G_30" function="internal">
        <lane id=":G_30_0" index="0" speed="14.99" length="20.98" shape="201.60,88.27 202.09,93.60 203.56,98.53 206.00,103.05 209.42,107.16"/>
    </edge>
    <edge id=":G_31" function="internal">
        <lane id=":G_31_0" index="0" speed="60.00" length="23.45" shape="201.60,88.27 201.60,111.73"/>
    </edge>
    <edge id=":G_32" function="internal">
        <lane id=":G_32_0" index="0" speed="15.85" length="5.99" shape="201.60,88.27 201.05,94.24"/>
    </edge>
    <edge id=":G_33" function="internal">
        <lane id=":G_33_0" index="0" speed="9.73" length="5.01" shape="201.60,88.27 200.89,93.24"/>
    </edge>
    <edge id=":G_34" function="internal">
        <lane id=":G_34_0" index="0" speed="3.65" length="1.44" shape="201.60,88.27 200.80,89.47"/>
    </edge>
    <edge id=":G_53" function="internal">
        <lane id=":G_53_0" index="0" speed="15.85" length="17.50" shape="201.05,94.24 199.41,99.76 196.67,104.82 192.84,109.42"/>
    </edge>
    <edge id=":G_54" function="internal">
        <lane id=":G_54_0" index="0" speed="9.73" length="16.48" shape="200.89,93.24 200.77,94.10 198.27,98.27 194.10,100.77 188.27,101.60"/>
    </edge>
    <edge id=":G_55" function="internal">
        <lane id=":G_55_0" index="0" speed="3.65" length="3.23" shape="200.80,89.47 200.00,89.87 199.20,89.47 198.40,88.27"/>
    </edge>
    <edge id=":G_35" function="internal">