<?xml version="1.0" encoding="UTF-8"?>

<!-- generated on 2023-06-13 11:50:54.980665 by randomTrips.py v1_16_0+0000-94ec4c6cd72
<configuration>
    <end value="150"/>
    <net-file value="./network_files/net.net.xml"/>
    <output-trip-file value="./network_files/nd/trips/nd150output.trips.xml"/>
</configuration>
-->

<routes xmlns:xsi="http://www.w3.org/2001/XMLSchema-instance" xsi:noNamespaceSchemaLocation="http://sumo.dlr.de/xsd/routes_file.xsd">
    <trip id="0" depart="0.00" from="IJ" to="AE"/>
    <trip id="1" depart="0.00" from="EF" to="EA"/>
    <trip id="2" depart="0.00" from="JI" to="IM"/>
    <trip id="3" depart="0.00" from="LA" to="BK"/>
    <trip id="4" depart="0.00" from="GF" to="AL"/>
    <trip id="5" depart="0.00" from="EA" to="HB"/>
    <trip id="6" depart="0.00" from="AL" to="DI"/>
    <trip id="7" depart="0.00" from="IJ" to="HG"/>
    <trip id="8" depart="0.00" from="EA" to="ID"/>
    <trip id="9" depart="0.00" from="KC" to="AE"/>
    <trip id="10" depart="0.00" from="KC" to="JF"/>
    <trip id="11" depart="0.00" from="FE" to="CM"/>
    <trip id="12" depart="0.00" from="MC" to="FE"/>
    <trip id="13" depart="0.00" from="BK" to="BK"/>
    <trip id="14" depart="0.00" from="KJ" to="ID"/>
    <trip id="15" depart="0.00" from="KC" to="JI"/>
    <trip id="16" depart="0.00" from="HG" to="MC"/>
    <trip id="17" depart="0.00" from="FJ" to="HG"/>
    <trip id="18" depart="0.00" from="KG" to="IE"/>
    <trip id="19" depart="0.00" from="KJ" to="HL"/>
    <trip id="20" depart="0.00" from="JF" to="AL"/>
    <trip id="21" depart="0.00" from="EA" to="EF"/>
    <trip id="22" depart="0.00" from="BK" to="EA"/>
    <trip id="23" depart="0.00" from="BK" to="EF"/>
    <trip id="24" depart="0.00" from="IJ" to="FG"/>
    <trip id="25" depart="0.00" from="FJ" to="DI"/>
    <trip id="26" depart="0.00" from="EF" to="LH"/>
    <trip id="27" depart="0.00" from="IJ" to="IE"/>
    <trip id="28" depart="0.00" from="DE" to="JI"/>
    <trip id="29" depart="0.00" from="DE" to="FJ"/>
    <trip id="30" depart="0.00" from="MI" to="IJ"/>
    <trip id="31" depart="0.00" from="HL" to="JF"/>
    <trip id="32" depart="0.00" from="KJ" to="KB"/>
    <trip id="33" depart="0.00" from="EA" to="AL"/>
    <trip id="34" depart="0.00" from="EI" to="EF"/>
    <trip id="35" depart="0.00" from="EA" to="LH"/>
    <trip id="36" depart="0.00" from="LA" to="EI"/>
    <trip id="37" depart="0.00" from="IJ" to="FL"/>
    <trip id="38" depart="0.00" from="LF" to="GH"/>
    <trip id="39" depart="0.00" from="EF" to="ED"/>
    <trip id="40" depart="0.00" from="HL" to="ED"/>
    <trip id="41" depart="0.00" from="ID" to="LF"/>
    <trip id="42" depart="0.00" from="FL" to="EA"/>
    <trip id="43" depart="0.00" from="MI" to="HB"/>
    <trip id="44" depart="0.00" from="BK" to="AL"/>
    <trip id="45" depart="0.00" from="CK" to="IE"/>
    <trip id="46" depart="0.00" from="KC" to="GF"/>
    <trip id="47" depart="0.00" from="BH" to="FJ"/>
    <trip id="48" depart="0.00" from="MI" to="HG"/>
    <trip id="49" depart="0.00" from="MC" to="KJ"/>
    <trip id="50" depart="0.00" from="AE" to="JI"/>
    <trip id="51" depart="0.00" from="IM" to="HG"/>
    <trip id="52" depart="0.00" from="EF" to="IJ"/>
    <trip id="53" depart="0.00" from="CK" to="GF"/>
    <trip id="54" depart="0.00" from="GH" to="MC"/>
    <trip id="55" depart="0.00" from="LA" to="EF"/>
    <trip id="56" depart="0.00" from="HB" to="DE"/>
    <trip id="57" depart="0.00" from="LF" to="LA"/>
    <trip id="58" depart="0.00" from="EI" to="IJ"/>
    <trip id="59" depart="0.00" from="IE" to="CM"/>
    <trip id="60" depart="0.00" from="JK" to="HG"/>
    <trip id="61" depart="0.00" from="KB" to="HG"/>
    <trip id="62" depart="0.00" from="AE" to="FE"/>
    <trip id="63" depart="0.00" from="AE" to="LH"/>
    <trip id="64" depart="0.00" from="LA" to="KG"/>
    <trip id="65" depart="0.00" from="EI" to="BH"/>
    <trip id="66" depart="0.00" from="LA" to="LH"/>
    <trip id="67" depart="0.00" from="BK" to="GK"/>
    <trip id="68" depart="0.00" from="BH" to="JK"/>
    <trip id="69" depart="0.00" from="KB" to="CK"/>
    <trip id="70" depart="0.00" from="GK" to="HG"/>
    <trip id="71" depart="0.00" from="EF" to="LA"/>
    <trip id="72" depart="0.00" from="GF" to="EA"/>
    <trip id="73" depart="0.00" from="HG" to="JI"/>
    <trip id="74" depart="0.00" from="DI" to="EI"/>
    <trip id="75" depart="0.00" from="MI" to="IJ"/>
    <trip id="76" depart="0.00" from="GF" to="HB"/>
    <trip id="77" depart="0.00" from="CK" to="EA"/>
    <trip id="78" depart="0.00" from="FE" to="ID"/>
    <trip id="79" depart="0.00" from="EA" to="EA"/>
    <trip id="80" depart="0.00" from="BH" to="IE"/>
    <trip id="81" depart="0.00" from="EA" to="LF"/>
    <trip id="82" depart="0.00" from="KJ" to="BH"/>
    <trip id="83" depart="0.00" from="ED" to="IM"/>
    <trip id="84" depart="0.00" from="EA" to="CM"/>
    <trip id="85" depart="0.00" from="LH" to="HL"/>
    <trip id="86" depart="0.00" from="GH" to="KB"/>
    <trip id="87" depart="0.00" from="KC" to="DI"/>
    <trip id="88" depart="0.00" from="BK" to="GF"/>
    <trip id="89" depart="0.00" from="GF" to="GH"/>
    <trip id="90" depart="0.00" from="JI" to="IM"/>
    <trip id="91" depart="0.00" from="MI" to="BK"/>
    <trip id="92" depart="0.00" from="FL" to="FE"/>
    <trip id="93" depart="0.00" from="KJ" to="ED"/>
    <trip id="94" depart="0.00" from="DI" to="GH"/>
    <trip id="95" depart="0.00" from="GF" to="EF"/>
    <trip id="96" depart="0.00" from="ED" to="LH"/>
    <trip id="97" depart="0.00" from="GF" to="KJ"/>
    <trip id="98" depart="0.00" from="HG" to="AL"/>
    <trip id="99" depart="0.00" from="MI" to="KG"/>
    <trip id="100" depart="0.00" from="MC" to="LH"/>
    <trip id="101" depart="0.00" from="KJ" to="DE"/>
    <trip id="102" depart="0.00" from="GK" to="EA"/>
    <trip id="103" depart="0.00" from="FL" to="BH"/>
    <trip id="104" depart="0.00" from="FJ" to="MI"/>
    <trip id="105" depart="0.00" from="EF" to="KB"/>
    <trip id="106" depart="0.00" from="GH" to="GF"/>
    <trip id="107" depart="0.00" from="MC" to="MI"/>
    <trip id="108" depart="0.00" from="HL" to="JI"/>
    <trip id="109" depart="0.00" from="CM" to="EI"/>
    <trip id="110" depart="0.00" from="MC" to="ID"/>
    <trip id="111" depart="0.00" from="HG" to="JK"/>
    <trip id="112" depart="0.00" from="BH" to="ID"/>
    <trip id="113" depart="0.00" from="HB" to="KJ"/>
    <trip id="114" depart="0.00" from="CM" to="MC"/>
    <trip id="115" depart="0.00" from="BK" to="DI"/>
    <trip id="116" depart="0.00" from="ID" to="IM"/>
    <trip id="117" depart="0.00" from="EA" to="CK"/>
    <trip id="118" depart="0.00" from="LA" to="ED"/>
    <trip id="119" depart="0.00" from="ID" to="IE"/>
    <trip id="120" depart="0.00" from="FL" to="ID"/>
    <trip id="121" depart="0.00" from="HB" to="LH"/>
    <trip id="122" depart="0.00" from="DI" to="JI"/>
    <trip id="123" depart="0.00" from="ED" to="FL"/>
    <trip id="124" depart="0.00" from="IM" to="EI"/>
    <trip id="125" depart="0.00" from="FE" to="JK"/>
    <trip id="126" depart="0.00" from="BH" to="GH"/>
    <trip id="127" depart="0.00" from="MI" to="MI"/>
    <trip id="128" depart="0.00" from="BH" to="EA"/>
    <trip id="129" depart="0.00" from="EF" to="LH"/>
    <trip id="130" depart="0.00" from="LA" to="LA"/>
    <trip id="131" depart="0.00" from="FJ" to="CM"/>
    <trip id="132" depart="0.00" from="KG" to="JF"/>
    <trip id="133" depart="0.00" from="IE" to="MI"/>
    <trip id="134" depart="0.00" from="IJ" to="AE"/>
    <trip id="135" depart="0.00" from="KG" to="EI"/>
    <trip id="136" depart="0.00" from="IM" to="LH"/>
    <trip id="137" depart="0.00" from="CM" to="CK"/>
    <trip id="138" depart="0.00" from="CK" to="HL"/>
    <trip id="139" depart="0.00" from="EF" to="ID"/>
    <trip id="140" depart="0.00" from="JI" to="DI"/>
    <trip id="141" depart="0.00" from="IJ" to="EF"/>
    <trip id="142" depart="0.00" from="GK" to="LF"/>
    <trip id="143" depart="0.00" from="KJ" to="BK"/>
    <trip id="144" depart="0.00" from="GF" to="EF"/>
    <trip id="145" depart="0.00" from="AE" to="KB"/>
    <trip id="146" depart="0.00" from="IJ" to="ED"/>
    <trip id="147" depart="0.00" from="JK" to="HG"/>
    <trip id="148" depart="0.00" from="GF" to="AE"/>
    <trip id="149" depart="0.00" from="BH" to="LA"/>
</routes>
