<?xml version="1.0" encoding="UTF-8"?>

<!-- generated on 2023-06-13 11:52:41.391428 by randomTrips.py v1_16_0+0000-94ec4c6cd72
<configuration>
    <end value="200"/>
    <net-file value="./network_files/net.net.xml"/>
    <output-trip-file value="./network_files/nd/trips/nd200output.trips.xml"/>
</configuration>
-->

<routes xmlns:xsi="http://www.w3.org/2001/XMLSchema-instance" xsi:noNamespaceSchemaLocation="http://sumo.dlr.de/xsd/routes_file.xsd">
    <trip id="0" depart="0.00" from="IJ" to="AL"/>
    <trip id="1" depart="0.00" from="ED" to="DI"/>
    <trip id="2" depart="0.00" from="JK" to="JF"/>
    <trip id="3" depart="0.00" from="LF" to="BH"/>
    <trip id="4" depart="0.00" from="FL" to="AL"/>
    <trip id="5" depart="0.00" from="DI" to="HB"/>
    <trip id="6" depart="0.00" from="AL" to="DE"/>
    <trip id="7" depart="0.00" from="IM" to="HG"/>
    <trip id="8" depart="0.00" from="DI" to="ID"/>
    <trip id="9" depart="0.00" from="KC" to="AE"/>
    <trip id="10" depart="0.00" from="KC" to="JI"/>
    <trip id="11" depart="0.00" from="FE" to="CK"/>
    <trip id="12" depart="0.00" from="MI" to="FE"/>
    <trip id="13" depart="0.00" from="BH" to="BK"/>
    <trip id="14" depart="0.00" from="KJ" to="IE"/>
    <trip id="15" depart="0.00" from="KC" to="JK"/>
    <trip id="16" depart="0.00" from="HG" to="MI"/>
    <trip id="17" depart="0.00" from="FG" to="HL"/>
    <trip id="18" depart="0.00" from="KG" to="IE"/>
    <trip id="19" depart="0.00" from="LA" to="ID"/>
    <trip id="20" depart="0.00" from="JI" to="AL"/>
    <trip id="21" depart="0.00" from="DI" to="EF"/>
    <trip id="22" depart="0.00" from="BH" to="DI"/>
    <trip id="23" depart="0.00" from="BK" to="ED"/>
    <trip id="24" depart="0.00" from="IJ" to="FG"/>
    <trip id="25" depart="0.00" from="FG" to="DE"/>
    <trip id="26" depart="0.00" from="ED" to="MC"/>
    <trip id="27" depart="0.00" from="IM" to="IE"/>
    <trip id="28" depart="0.00" from="CM" to="JK"/>
    <trip id="29" depart="0.00" from="CK" to="FG"/>
    <trip id="30" depart="0.00" from="MJ" to="IJ"/>
    <trip id="31" depart="0.00" from="HL" to="JF"/>
    <trip id="32" depart="0.00" from="KJ" to="KB"/>
    <trip id="33" depart="0.00" from="DI" to="AL"/>
    <trip id="34" depart="0.00" from="EI" to="ED"/>
    <trip id="35" depart="0.00" from="DE" to="MC"/>
    <trip id="36" depart="0.00" from="LA" to="EI"/>
    <trip id="37" depart="0.00" from="IM" to="FJ"/>
    <trip id="38" depart="0.00" from="LH" to="GH"/>
    <trip id="39" depart="0.00" from="ED" to="EA"/>
    <trip id="40" depart="0.00" from="HL" to="ED"/>
    <trip id="41" depart="0.00" from="ID" to="LF"/>
    <trip id="42" depart="0.00" from="FJ" to="DI"/>
    <trip id="43" depart="0.00" from="MJ" to="HB"/>
    <trip id="44" depart="0.00" from="BH" to="AL"/>
    <trip id="45" depart="0.00" from="BK" to="IJ"/>
    <trip id="46" depart="0.00" from="KC" to="FL"/>
    <trip id="47" depart="0.00" from="BC" to="FJ"/>
    <trip id="48" depart="0.00" from="MJ" to="HG"/>
    <trip id="49" depart="0.00" from="MI" to="LA"/>
    <trip id="50" depart="0.00" from="AE" to="JK"/>
    <trip id="51" depart="0.00" from="JF" to="HG"/>
    <trip id="52" depart="0.00" from="ED" to="IJ"/>
    <trip id="53" depart="0.00" from="BK" to="GF"/>
    <trip id="54" depart="0.00" from="GH" to="MI"/>
    <trip id="55" depart="0.00" from="LA" to="ED"/>
    <trip id="56" depart="0.00" from="HB" to="CM"/>
    <trip id="57" depart="0.00" from="LH" to="LA"/>
    <trip id="58" depart="0.00" from="EF" to="IJ"/>
    <trip id="59" depart="0.00" from="IE" to="CK"/>
    <trip id="60" depart="0.00" from="KB" to="HG"/>
    <trip id="61" depart="0.00" from="KB" to="HG"/>
    <trip id="62" depart="0.00" from="AE" to="EI"/>
    <trip id="63" depart="0.00" from="AE" to="MC"/>
    <trip id="64" depart="0.00" from="LA" to="KG"/>
    <trip id="65" depart="0.00" from="EF" to="BC"/>
    <trip id="66" depart="0.00" from="LA" to="MC"/>
    <trip id="67" depart="0.00" from="BH" to="GK"/>
    <trip id="68" depart="0.00" from="BC" to="JM"/>
    <trip id="69" depart="0.00" from="KB" to="CB"/>
    <trip id="70" depart="0.00" from="GH" to="HL"/>
    <trip id="71" depart="0.00" from="ED" to="LA"/>
    <trip id="72" depart="0.00" from="FL" to="DE"/>
    <trip id="73" depart="0.00" from="HG" to="JK"/>
    <trip id="74" depart="0.00" from="DE" to="EI"/>
    <trip id="75" depart="0.00" from="MJ" to="IM"/>
    <trip id="76" depart="0.00" from="GF" to="HB"/>
    <trip id="77" depart="0.00" from="CB" to="DI"/>
    <trip id="78" depart="0.00" from="FE" to="ID"/>
    <trip id="79" depart="0.00" from="DI" to="DI"/>
    <trip id="80" depart="0.00" from="BC" to="IJ"/>
    <trip id="81" depart="0.00" from="DI" to="LH"/>
    <trip id="82" depart="0.00" from="LA" to="BC"/>
    <trip id="83" depart="0.00" from="DI" to="JF"/>
    <trip id="84" depart="0.00" from="DE" to="CB"/>
    <trip id="85" depart="0.00" from="MC" to="HL"/>
    <trip id="86" depart="0.00" from="GH" to="KB"/>
    <trip id="87" depart="0.00" from="KC" to="CM"/>
    <trip id="88" depart="0.00" from="BK" to="GF"/>
    <trip id="89" depart="0.00" from="FL" to="GH"/>
    <trip id="90" depart="0.00" from="JK" to="JF"/>
    <trip id="91" depart="0.00" from="MJ" to="BK"/>
    <trip id="92" depart="0.00" from="FJ" to="FE"/>
    <trip id="93" depart="0.00" from="LA" to="EA"/>
    <trip id="94" depart="0.00" from="CM" to="GF"/>
    <trip id="95" depart="0.00" from="FL" to="ED"/>
    <trip id="96" depart="0.00" from="EA" to="LH"/>
    <trip id="97" depart="0.00" from="GF" to="LA"/>
    <trip id="98" depart="0.00" from="HL" to="BC"/>
    <trip id="99" depart="0.00" from="MJ" to="KJ"/>
    <trip id="100" depart="0.00" from="MI" to="LH"/>
    <trip id="101" depart="0.00" from="KJ" to="CK"/>
    <trip id="102" depart="0.00" from="GK" to="DE"/>
    <trip id="103" depart="0.00" from="FJ" to="BC"/>
    <trip id="104" depart="0.00" from="FG" to="MJ"/>
    <trip id="105" depart="0.00" from="ED" to="KB"/>
    <trip id="106" depart="0.00" from="GH" to="FL"/>
    <trip id="107" depart="0.00" from="MI" to="MJ"/>
    <trip id="108" depart="0.00" from="HL" to="JK"/>
    <trip id="109" depart="0.00" from="CK" to="EF"/>
    <trip id="110" depart="0.00" from="MI" to="ID"/>
    <trip id="111" depart="0.00" from="HG" to="JM"/>
    <trip id="112" depart="0.00" from="BC" to="ID"/>
    <trip id="113" depart="0.00" from="HB" to="KJ"/>
    <trip id="114" depart="0.00" from="CK" to="MI"/>
    <trip id="115" depart="0.00" from="BH" to="CM"/>
    <trip id="116" depart="0.00" from="ID" to="JF"/>
    <trip id="117" depart="0.00" from="DI" to="CB"/>
    <trip id="118" depart="0.00" from="LF" to="EA"/>
    <trip id="119" depart="0.00" from="ID" to="IJ"/>
    <trip id="120" depart="0.00" from="FL" to="ID"/>
    <trip id="121" depart="0.00" from="HB" to="MC"/>
    <trip id="122" depart="0.00" from="DE" to="JK"/>
    <trip id="123" depart="0.00" from="EA" to="FJ"/>
    <trip id="124" depart="0.00" from="JF" to="EF"/>
    <trip id="125" depart="0.00" from="EI" to="JM"/>
    <trip id="126" depart="0.00" from="BH" to="GH"/>
    <trip id="127" depart="0.00" from="MJ" to="MJ"/>
    <trip id="128" depart="0.00" from="BH" to="DE"/>
    <trip id="129" depart="0.00" from="ED" to="MC"/>
    <trip id="130" depart="0.00" from="LA" to="LA"/>
    <trip id="131" depart="0.00" from="FG" to="CK"/>
    <trip id="132" depart="0.00" from="KJ" to="JI"/>
    <trip id="133" depart="0.00" from="IE" to="MJ"/>
    <trip id="134" depart="0.00" from="IM" to="AE"/>
    <trip id="135" depart="0.00" from="KG" to="EF"/>
    <trip id="136" depart="0.00" from="IM" to="MC"/>
    <trip id="137" depart="0.00" from="CB" to="BK"/>
    <trip id="138" depart="0.00" from="BK" to="HL"/>
    <trip id="139" depart="0.00" from="ED" to="IE"/>
    <trip id="140" depart="0.00" from="JK" to="DE"/>
    <trip id="141" depart="0.00" from="IJ" to="ED"/>
    <trip id="142" depart="0.00" from="GK" to="LH"/>
    <trip id="143" depart="0.00" from="KJ" to="BH"/>
    <trip id="144" depart="0.00" from="FL" to="ED"/>
    <trip id="145" depart="0.00" from="AE" to="KB"/>
    <trip id="146" depart="0.00" from="IJ" to="ED"/>
    <trip id="147" depart="0.00" from="JM" to="HL"/>
    <trip id="148" depart="0.00" from="FL" to="AE"/>
    <trip id="149" depart="0.00" from="BH" to="LF"/>
    <trip id="150" depart="0.00" from="LF" to="HG"/>
    <trip id="151" depart="0.00" from="KJ" to="ID"/>
    <trip id="152" depart="0.00" from="CK" to="CB"/>
    <trip id="153" depart="0.00" from="EF" to="LF"/>
    <trip id="154" depart="0.00" from="KC" to="LA"/>
    <trip id="155" depart="0.00" from="LF" to="DE"/>
    <trip id="156" depart="0.00" from="EA" to="BK"/>
    <trip id="157" depart="0.00" from="KB" to="LF"/>
    <trip id="158" depart="0.00" from="FL" to="IJ"/>
    <trip id="159" depart="0.00" from="CK" to="MC"/>
    <trip id="160" depart="0.00" from="LA" to="MJ"/>
    <trip id="161" depart="0.00" from="KG" to="LF"/>
    <trip id="162" depart="0.00" from="AL" to="JK"/>
    <trip id="163" depart="0.00" from="EI" to="MC"/>
    <trip id="164" depart="0.00" from="KC" to="LA"/>
    <trip id="165" depart="0.00" from="KG" to="ED"/>
    <trip id="166" depart="0.00" from="KC" to="BK"/>
    <trip id="167" depart="0.00" from="LA" to="LA"/>
    <trip id="168" depart="0.00" from="DI" to="KG"/>
    <trip id="169" depart="0.00" from="GH" to="EF"/>
    <trip id="170" depart="0.00" from="KC" to="DI"/>
    <trip id="171" depart="0.00" from="AE" to="DE"/>
    <trip id="172" depart="0.00" from="EI" to="LA"/>
    <trip id="173" depart="0.00" from="MI" to="ED"/>
    <trip id="174" depart="0.00" from="IJ" to="FJ"/>
    <trip id="175" depart="0.00" from="MJ" to="HG"/>
    <trip id="176" depart="0.00" from="MC" to="BK"/>
    <trip id="177" depart="0.00" from="MI" to="CM"/>
    <trip id="178" depart="0.00" from="MI" to="ED"/>
    <trip id="179" depart="0.00" from="BK" to="GF"/>
    <trip id="180" depart="0.00" from="JK" to="EI"/>
    <trip id="181" depart="0.00" from="IE" to="HB"/>
    <trip id="182" depart="0.00" from="FJ" to="ID"/>
    <trip id="183" depart="0.00" from="EA" to="JI"/>
    <trip id="184" depart="0.00" from="AE" to="LH"/>
    <trip id="185" depart="0.00" from="HG" to="JK"/>
    <trip id="186" depart="0.00" from="JM" to="JF"/>
    <trip id="187" depart="0.00" from="FG" to="BC"/>
    <trip id="188" depart="0.00" from="IM" to="EI"/>
    <trip id="189" depart="0.00" from="EI" to="KJ"/>
    <trip id="190" depart="0.00" from="JK" to="EF"/>
    <trip id="191" depart="0.00" from="EF" to="FL"/>
    <trip id="192" depart="0.00" from="FJ" to="EF"/>
    <trip id="193" depart="0.00" from="CB" to="FL"/>
    <trip id="194" depart="0.00" from="MC" to="JF"/>
    <trip id="195" depart="0.00" from="LF" to="IE"/>
    <trip id="196" depart="0.00" from="EF" to="HL"/>
    <trip id="197" depart="0.00" from="AE" to="EF"/>
    <trip id="198" depart="0.00" from="GF" to="ID"/>
    <trip id="199" depart="0.00" from="IM" to="GH"/>
</routes>
